<?xml version="1.0" encoding="UTF-8"?>

<!-- generated on 12/20/14 06:02:11 by SUMO duarouter Version 0.22.0
<?xml version="1.0" encoding="UTF-8"?>

<configuration xmlns:xsi="http://www.w3.org/2001/XMLSchema-instance" xsi:noNamespaceSchemaLocation="http://sumo.dlr.de/xsd/duarouterConfiguration.xsd">

    <input>
        <net-file value="sim.net.xml"/>
        <trip-files value="sim.generated-trips.xml"/>
    </input>

    <output>
        <output-file value="sim.rou.xml"/>
    </output>

    <processing>
        <ignore-errors value="true"/>
    </processing>

</configuration>
-->

<routes >
    <vType id="Default" length="5.00" maxSpeed="70.00">
        <carFollowing-Krauss accel="2.60" decel="4.50" sigma="0.50"/>
    </vType>
    <vehicle id="Colman vuelta-146" type="Default" depart="1.00" color="239,233,91">
        <route edges="78115663 78120102 78109741#1 175346557#0 78105820#0 78105820#1 78105718#0 78105718#1 205233422#6"/>
    </vehicle>
    <vehicle id="autos ida -492" type="Default" depart="1.00" color="198,128,14">
        <route edges="248424397#0 78115304#0 78115304#1 78115304#2 78115304#3 205233880 205233881 219015146#0 219015146#1 219015146#2 219015146#3 219015146#4 219015146#5 219015146#6 219015146#7 219015146#8 219015146#9 219015146#10 219015146#11 219015146#12 219015146#14 219015146#15 219015146#16 219015146#17 219015146#19 219015146#20 219015146#21 219015146#22 219015146#23 219015146#24 219015146#25 219015146#26 219015146#27 219015146#28 219015146#29 219015146#30 219015146#31 219015146#32 219015146#33 219015146#34 -78120102 78120102"/>
    </vehicle>
    <vehicle id="autos vuelta-56" type="Default" depart="1.00" color="42,222,96">
        <route edges="-78109741#1 78104894#0 78104894#2 78104894#3 78104894#4 78104894#5 78104894#6 78104894#7 78104894#8 78104894#9 78104894#10 78104894#11 78104894#12 78104894#13 78104894#14 78104894#15 78104894#16 78104894#17 78104894#18 78104894#19 78104894#20 78104894#21 78104894#22 78104894#23 78104894#24 78104894#25 78104894#26 78104894#27 78104894#28 78104894#29 78104894#30 78104894#31 78104894#33 78104894#34 78104894#35 78104894#36 78104894#37 78104894#39 78104894#40 78104894#41 78104894#42 78104894#43 78104894#44 78104894#45 78104894#46 78104894#47 78104894#48 78104894#49 78104894#50 78104894#51 205233407#0 219015146#0 78106306 78110384 -78114894#0 78113125 78110057#2 217654229 78115304#1 78115304#2 78115304#3 205233882"/>
    </vehicle>
    <vehicle id="autos ida -420" type="Default" depart="2.00" color="198,128,14">
        <route edges="78108237 78115304#3 205233880 205233881 219015146#0 219015146#1 219015146#2 219015146#3 219015146#4 219015146#5 219015146#6 219015146#7 219015146#8 219015146#9 219015146#10 219015146#11 219015146#12 219015146#14 219015146#15 219015146#16 219015146#17 219015146#19 219015146#20 219015146#21 219015146#22 219015146#23 219015146#24 219015146#25 219015146#26 219015146#27 219015146#28 219015146#29 219015146#30 219015146#31 219015146#32 219015146#33 219015146#34 78104246"/>
    </vehicle>
    <vehicle id="Colman ida-95" type="Default" depart="3.00" color="184,2,59">
        <route edges="-78119363#1 78119363#1 78119363#2 78119363#3 78119363#4 237181022#5 219015146#34 78109741#1 175346557#0 175346557#1 175346557#2 205233422#8"/>
    </vehicle>
    <vehicle id="Propios vuelta-124" type="Default" depart="5.00" color="196,236,121">
        <route edges="-78116811#7 176376723#1 176376723#2 176376723#3 176376723#4 176376723#5 176376723#6 164103645#2 -78114146#4 -78114146#3 -78114146#2 -78114146#1 -78114146#0 164112299 164112301#4 164112301#5"/>
    </vehicle>
    <vehicle id="autos ida -374" type="Default" depart="12.00" color="198,128,14">
        <route edges="78105309#0 78107040 -78120448#6 -78104577#1 219015159#3 219015146#2 219015146#3 219015146#4 219015146#5 219015146#6 219015146#7 219015146#8 219015146#9 219015146#10 219015146#11 219015146#12 219015146#14 219015146#15 219015146#16 219015146#17 219015146#19 219015146#20 219015146#21 219015146#22 219015146#23 219015146#24 219015146#25 219015146#26 219015146#27 219015146#28 219015146#29 219015146#30 219015146#31 219015146#32 219015146#33 219015146#34 -78120102"/>
    </vehicle>
    <vehicle id="autos vuelta-400" type="Default" depart="12.00" color="42,222,96">
        <route edges="-78120102 78120102 78104894#0 78104894#2 78104894#3 78104894#4 78104894#5 78104894#6 78104894#7 78104894#8 78104894#9 78104894#10 78104894#11 78104894#12 78104894#13 78104894#14 78104894#15 78104894#16 78104894#17 78104894#18 78104894#19 78104894#20 78104894#21 78104894#22 78104894#23 78104894#24 78104894#25 78104894#26 78104894#27 78104894#28 78104894#29 78104894#30 78104894#31 78104894#33 78104894#34 78104894#35 78104894#36 78104894#37 78104894#39 78104894#40 78104894#41 78104894#42 78104894#43 78104894#44 78104894#45 78104894#46 78104894#47 78104894#48 78104894#49 78104894#50 78104894#51"/>
    </vehicle>
    <vehicle id="saravia vuelta-15" type="Default" depart="12.00" color="132,18,110">
        <route edges="-78099631#0 -219015147#5 -219015147#4 -219015147#3 -219015147#2 -219015147#1 -219015147#0 -165264989#4 -165264989#3 -165264989#2 -165264989#1 -165264989#0"/>
    </vehicle>
    <vehicle id="Colman ida-57" type="Default" depart="13.00" color="184,2,59">
        <route edges="78119363#0 78119363#1 78119363#2 78119363#3 78119363#4 237181022#5 219015146#34 78109741#1 175346557#0 175346557#1 175346557#2 205233422#8 -205233422#8"/>
    </vehicle>
    <vehicle id="Propios ida-201" type="Default" depart="16.00" color="132,163,211">
        <route edges="164112301#1 164112301#2 164112298 78114146#0 78114146#1 78114146#2 78114146#3 78114146#4 164103646#0 164088677#0 164088677#1 164088677#2 -260980918#0 -176376526#5 -78103006#0 78108341#1 -78108341#1"/>
    </vehicle>
    <vehicle id="autos ida -55" type="Default" depart="16.00" color="198,128,14">
        <route edges="78115304#2 78115304#3 205233880 205233881 219015146#0 219015146#1 219015146#2 219015146#3 219015146#4 219015146#5 219015146#6 219015146#7 219015146#8 219015146#9 219015146#10 219015146#11 219015146#12 219015146#14 219015146#15 219015146#16 219015146#17 219015146#19 219015146#20 219015146#21 219015146#22 219015146#23 219015146#24 219015146#25 219015146#26 219015146#27 219015146#28 219015146#29 219015146#30 219015146#31 219015146#32 219015146#33 219015146#34 78109741#1"/>
    </vehicle>
    <vehicle id="autos ida -360" type="Default" depart="21.00" color="198,128,14">
        <route edges="78115304#3 205233880 205233881 219015146#0 219015146#1 219015146#2 219015146#3 219015146#4 219015146#5 219015146#6 219015146#7 219015146#8 219015146#9 219015146#10 219015146#11 219015146#12 219015146#14 219015146#15 219015146#16 219015146#17 219015146#19 219015146#20 219015146#21 219015146#22 219015146#23 219015146#24 219015146#25 219015146#26 219015146#27 219015146#28 219015146#29 219015146#30 219015146#31 219015146#32 219015146#33 219015146#34 -78120102 78120102"/>
    </vehicle>
    <vType id="Bus" length="12.00" maxSpeed="28.00">
        <carFollowing-Krauss accel="2.60" decel="4.50" sigma="0.00"/>
    </vType>
    <vehicle id="omnibus ida-29" type="Bus" depart="21.00" color="91,190,69">
        <route edges="205233404#0 205233404#1 205233404#2 205233404#3 -165264989#4 165264989#4 219015146#7 219015146#8 219015146#9 219015146#10 219015146#11 219015146#12 219015146#14 219015146#15 219015146#16 219015146#17 219015146#19 219015146#20 219015146#21 219015146#22 219015146#23 219015146#24 219015146#25 219015146#26 219015146#27 219015146#28 219015146#29 219015146#30 219015146#31"/>
    </vehicle>
    <vehicle id="Propios vuelta-282" type="Default" depart="22.00" color="196,236,121">
        <route edges="78103006#1 -78103006#1 176376526#5 176376723#2 176376723#3 176376723#4 176376723#5 176376723#6 164103645#2 -78114146#4 -78114146#3 -78114146#2 -78114146#1 78118899#0 -78106343#0 164112302#1"/>
    </vehicle>
    <vehicle id="autos vuelta-416" type="Default" depart="25.00" color="42,222,96">
        <route edges="219015146#34 78109741#1 -78109741#1 78104894#0 78104894#2 78104894#3 78104894#4 78104894#5 78104894#6 78104894#7 78104894#8 78104894#9 78104894#10 78104894#11 78104894#12 78104894#13 78104894#14 78104894#15 78104894#16 78104894#17 78104894#18 78104894#19 78104894#20 78104894#21 78104894#22 78104894#23 78104894#24 78104894#25 78104894#26 78104894#27 78104894#28 78104894#29 78104894#30 78104894#31 78104894#33 78104894#34 78104894#35 78104894#36 78104894#37 78104894#39 78104894#40 78104894#41 78104894#42 78104894#43 78104894#44 78104894#45 78104894#46 78104894#47 78104894#48 78104894#49 78104894#50 78104894#51 205233407#0 219015146#0 78106306 78110384 -78114894#0 78113125 78110057#2 217654229 78115304#1 78115304#2 78115304#3 205233879"/>
    </vehicle>
    <vehicle id="Propios vuelta-247" type="Default" depart="26.00" color="196,236,121">
        <route edges="78116811#6 176376723#1 176376723#2 176376723#3 176376723#4 176376723#5 176376723#6 164103645#2 -78114146#4 -78114146#3 -78114146#2 -78114146#1"/>
    </vehicle>
    <vehicle id="Propios vuelta-28" type="Default" depart="27.00" color="196,236,121">
        <route edges="164088677#6 78116811#6 176376723#1 176376723#2 176376723#3 176376723#4 176376723#5 176376723#6 164103645#2 -78114146#4 -78114146#3 -78114146#2 -78114146#1 -78114146#0 164112299 164112301#4 164112301#5 164112301#6 164112301#1 164112301#2 164112298"/>
    </vehicle>
    <vehicle id="saravia vuelta-89" type="Default" depart="27.00" color="132,18,110">
        <route edges="78116435#1 -219015147#3 -219015147#2 -219015147#1 -219015147#0 -165264989#4 -165264989#3 -165264989#2 -165264989#1 -165264989#0"/>
    </vehicle>
    <vehicle id="autos vuelta-306" type="Default" depart="29.00" color="42,222,96">
        <route edges="78120102 78104894#0 78104894#2 78104894#3 78104894#4 78104894#5 78104894#6 78104894#7 78104894#8 78104894#9 78104894#10 78104894#11 78104894#12 78104894#13 78104894#14 78104894#15 78104894#16 78104894#17 78104894#18 78104894#19 78104894#20 78104894#21 78104894#22 78104894#23 78104894#24 78104894#25 78104894#26 78104894#27 78104894#28 78104894#29 78104894#30 78104894#31 78104894#33 78104894#34 78104894#35 78104894#36 78104894#37 78104894#39 78104894#40 78104894#41 78104894#42 78104894#43 78104894#44 78104894#45 78104894#46 78104894#47 78104894#48 78104894#49 78104894#50 78104894#51 205233407#0 219015146#0 78106306 78110384 -78114894#0 78113125 78110057#2 217654229 78115304#1 78115304#2 -78108237"/>
    </vehicle>
    <vehicle id="millan vuelta-126" type="Default" depart="30.00" color="111,247,23">
        <route edges="78117297#1 78117297#2 78117297#3 78117297#4 78117297#5 78117297#6 78117297#7 78117297#10 78117297#11 78117297#12 78117297#13"/>
    </vehicle>
    <vehicle id="Colman ida-43" type="Default" depart="35.00" color="184,2,59">
        <route edges="78119363#0 78119363#1 78119363#2 78119363#3 78119363#4 237181022#5 219015146#34 78109741#1 175346557#0 175346557#1 175346557#2 205233422#8 -205233422#8"/>
    </vehicle>
    <vehicle id="autos vuelta-376" type="Default" depart="36.00" color="42,222,96">
        <route edges="237181042 78104894#0 78104894#2 78104894#3 78104894#4 78104894#5 78104894#6 78104894#7 78104894#8 78104894#9 78104894#10 78104894#11 78104894#12 78104894#13 78104894#14 78104894#15 78104894#16 78104894#17 78104894#18 78104894#19 78104894#20 78104894#21 78104894#22 78104894#23 78104894#24 78104894#25 78104894#26 78104894#27 78104894#28 78104894#29 78104894#30 78104894#31 78104894#33 78104894#34 78104894#35 78104894#36 78104894#37 78104894#39 78104894#40 78104894#41 78104894#42 78104894#43 78104894#44 78104894#45 78104894#46 78104894#47 78104894#48 78104894#49 78104894#50 78104894#51 205233407#0 219015146#0 78106306 78110384 -78114894#0 78113125 78110057#2 217654229 78115304#1 78115304#2 -78108237 -248424397#2 -248424397#1 78115304#0"/>
    </vehicle>
    <vehicle id="millan vuelta-157" type="Default" depart="37.00" color="111,247,23">
        <route edges="-78116811#1 78116811#1 78117297#3 78117297#4 78117297#5 78117297#6 78117297#7 78117297#10 78117297#11 78117297#12 78117297#13"/>
    </vehicle>
    <vehicle id="autos ida -153" type="Default" depart="38.00" color="198,128,14">
        <route edges="248424397#0 78115304#0 78115304#1 78115304#2 78115304#3 205233880 205233881 219015146#0 219015146#1 219015146#2 219015146#3 219015146#4 219015146#5 219015146#6 219015146#7 219015146#8 219015146#9 219015146#10 219015146#11 219015146#12 219015146#14 219015146#15 219015146#16 219015146#17 219015146#19 219015146#20 219015146#21 219015146#22 219015146#23 219015146#24 219015146#25 219015146#26 219015146#27 219015146#28 219015146#29 219015146#30 219015146#31 219015146#32 219015146#33 219015146#34"/>
    </vehicle>
    <vehicle id="autos ida -368" type="Default" depart="40.00" color="198,128,14">
        <route edges="78110837 78114894#0 -78110384 -78106306 219015146#1 219015146#2 219015146#3 219015146#4 219015146#5 219015146#6 219015146#7 219015146#8 219015146#9 219015146#10 219015146#11 219015146#12 219015146#14 219015146#15 219015146#16 219015146#17 219015146#19 219015146#20 219015146#21 219015146#22 219015146#23 219015146#24 219015146#25 219015146#26 219015146#27 219015146#28 219015146#29 219015146#30 219015146#31 219015146#32 219015146#33 219015146#34 78109741#1 -78109741#1"/>
    </vehicle>
    <vehicle id="Colman ida-116" type="Default" depart="43.00" color="184,2,59">
        <route edges="78120102 78109741#1 175346557#0 175346557#1 175346557#2 -205233422#7 78117631 -78117631"/>
    </vehicle>
    <vehicle id="Propios ida-213" type="Default" depart="43.00" color="132,163,211">
        <route edges="164121089#2 164112301#2 164112298 78114146#0 78114146#1 78114146#2 78114146#3 78114146#4 164103646#0 164088677#0 164088677#1 164088677#2 164088677#3 -78109121#1"/>
    </vehicle>
    <vehicle id="Colman vuelta-78" type="Default" depart="44.00" color="239,233,91">
        <route edges="-78115663 78115663 78120102 78109741#1 175346557#0 175346557#1 175346557#2 -205233422#7 78117631"/>
    </vehicle>
    <vehicle id="Saravia Ida-54" type="Default" depart="45.00" color="190,33,149">
        <route edges="241572207 -241572207 165264989#1 165264989#2 165264989#3 165264989#4 219015147#0 219015147#1 219015147#2"/>
    </vehicle>
    <vehicle id="autos vuelta-89" type="Default" depart="51.00" color="42,222,96">
        <route edges="237181042 78104894#0 78104894#2 78104894#3 78104894#4 78104894#5 78104894#6 78104894#7 78104894#8 78104894#9 78104894#10 78104894#11 78104894#12 78104894#13 78104894#14 78104894#15 78104894#16 78104894#17 78104894#18 78104894#19 78104894#20 78104894#21 78104894#22 78104894#23 78104894#24 78104894#25 78104894#26 78104894#27 78104894#28 78104894#29 78104894#30 78104894#31 78104894#33 78104894#34 78104894#35 78104894#36 78104894#37 78104894#39 78104894#40 78104894#41 78104894#42 78104894#43 78104894#44 78104894#45 78104894#46 78104894#47 78104894#48 78104894#49 78104894#50 78104894#51 205233407#0 219015146#0 78106306 78110384 -78114894#0 78113125 78110057#2 217654229 78115304#1 78115304#2 78115304#3 205233879"/>
    </vehicle>
    <vehicle id="autos ida -499" type="Default" depart="52.00" color="198,128,14">
        <route edges="78115304#0 78115304#1 78115304#2 78115304#3 205233880 205233881 219015146#0 219015146#1 219015146#2 219015146#3 219015146#4 219015146#5 219015146#6 219015146#7 219015146#8 219015146#9 219015146#10 219015146#11 219015146#12 219015146#14 219015146#15 219015146#16 219015146#17 219015146#19 219015146#20 219015146#21 219015146#22 219015146#23 219015146#24 219015146#25 219015146#26 219015146#27 219015146#28 219015146#29 219015146#30 219015146#31 219015146#32 219015146#33 219015146#34 -78120102 78120102"/>
    </vehicle>
    <vehicle id="Propios ida-267" type="Default" depart="56.00" color="132,163,211">
        <route edges="78118899#0 -78118899#0 78114146#1 78114146#2 78114146#3 78114146#4 164103646#0 164088677#0 164088677#1 164088677#2 164088677#3 164088677#4 164088677#5 78117418 78116811#7"/>
    </vehicle>
    <vehicle id="autos ida -90" type="Default" depart="56.00" color="198,128,14">
        <route edges="78108237 78115304#3 205233880 205233881 219015146#0 219015146#1 219015146#2 219015146#3 219015146#4 219015146#5 219015146#6 219015146#7 219015146#8 219015146#9 219015146#10 219015146#11 219015146#12 219015146#14 219015146#15 219015146#16 219015146#17 219015146#19 219015146#20 219015146#21 219015146#22 219015146#23 219015146#24 219015146#25 219015146#26 219015146#27 219015146#28 219015146#29 219015146#30 219015146#31 219015146#32 219015146#33 219015146#34 -78120102"/>
    </vehicle>
    <vehicle id="autos vuelta-59" type="Default" depart="56.00" color="42,222,96">
        <route edges="-78109741#1 78104894#0 78104894#2 78104894#3 78104894#4 78104894#5 78104894#6 78104894#7 78104894#8 78104894#9 78104894#10 78104894#11 78104894#12 78104894#13 78104894#14 78104894#15 78104894#16 78104894#17 78104894#18 78104894#19 78104894#20 78104894#21 78104894#22 78104894#23 78104894#24 78104894#25 78104894#26 78104894#27 78104894#28 78104894#29 78104894#30 78104894#31 78104894#33 78104894#34 78104894#35 78104894#36 78104894#37 78104894#39 78104894#40 78104894#41 78104894#42 78104894#43 78104894#44 78104894#45 78104894#46 78104894#47 78104894#48 78104894#49 78104894#50 78104894#51 205233407#0 219015146#0 78106306 78110384 -78114894#0 78113125 78110057#2 217654229 78115304#1 78110837"/>
    </vehicle>
    <vehicle id="Propios ida-109" type="Default" depart="58.00" color="132,163,211">
        <route edges="-78118373#0 -78118899#0 78114146#1 78114146#2 78114146#3 78114146#4 164103646#0 164088677#0 164088677#1 164088677#2 -260980918#0 -176376526#5 -176376526#4 -176376526#3 78107195 78116811#9 -78116811#9"/>
    </vehicle>
    <vehicle id="Colman vuelta-112" type="Default" depart="59.00" color="239,233,91">
        <route edges="-78107174#0 78119363#1 78119363#2 78119363#3 78119363#4 78119363#5 78119363#8 78119363#9 -179076035#2 78103595#1 78105718#1 205233422#6 -205233422#6"/>
    </vehicle>
    <vehicle id="autos ida -346" type="Default" depart="61.00" color="198,128,14">
        <route edges="205233879 205233411 205233404#0 205233404#1 205233404#2 205233404#3 -165264989#4 165264989#4 219015146#7 219015146#8 219015146#9 219015146#10 219015146#11 219015146#12 219015146#14 219015146#15 219015146#16 219015146#17 219015146#19 219015146#20 219015146#21 219015146#22 219015146#23 219015146#24 219015146#25 219015146#26 219015146#27 219015146#28 219015146#29 219015146#30 219015146#31 219015146#32 219015146#33 219015146#34"/>
    </vehicle>
    <vehicle id="autos vuelta-246" type="Default" depart="63.00" color="42,222,96">
        <route edges="-78109741#1 78104894#0 78104894#2 78104894#3 78104894#4 78104894#5 78104894#6 78104894#7 78104894#8 78104894#9 78104894#10 78104894#11 78104894#12 78104894#13 78104894#14 78104894#15 78104894#16 78104894#17 78104894#18 78104894#19 78104894#20 78104894#21 78104894#22 78104894#23 78104894#24 78104894#25 78104894#26 78104894#27 78104894#28 78104894#29 78104894#30 78104894#31 78104894#33 78104894#34 78104894#35 78104894#36 78104894#37 78104894#39 78104894#40 78104894#41 78104894#42 78104894#43 78104894#44 78104894#45 78104894#46 78104894#47 -205233404#1 -205233404#0 205233405#0 205233405#1"/>
    </vehicle>
    <vehicle id="autos vuelta-380" type="Default" depart="63.00" color="42,222,96">
        <route edges="-78109741#1 78104894#0 78104894#2 78104894#3 78104894#4 78104894#5 78104894#6 78104894#7 78104894#8 78104894#9 78104894#10 78104894#11 78104894#12 78104894#13 78104894#14 78104894#15 78104894#16 78104894#17 78104894#18 78104894#19 78104894#20 78104894#21 78104894#22 78104894#23 78104894#24 78104894#25 78104894#26 78104894#27 78104894#28 78104894#29 78104894#30 78104894#31 78104894#33 78104894#34 78104894#35 78104894#36 78104894#37 78104894#39 78104894#40 78104894#41 78104894#42 78104894#43 78104894#44 78104894#45 78104894#46 78104894#47 78104894#48 78104894#49 78104894#50 78104894#51 205233407#0 219015146#0 78106306 78110384 -78114894#0 78113125 78110057#2 217654229 78115304#1 78115304#2 -78108237 -248424397#2 -248424397#1 78115304#0"/>
    </vehicle>
    <vehicle id="millan ida-78" type="Default" depart="64.00" color="186,209,193">
        <route edges="78117297#13 164121089#1 78111878#1 78111878#2 241572204#4 78113638#1 78113638#2 78113638#3 78104894#36 78104894#37 78108804#6 78108804#7 78108804#8 78108804#9 78108804#10 78108804#11 78108804#12 78108804#13"/>
    </vehicle>
    <vehicle id="millan ida-92" type="Default" depart="64.00" color="186,209,193">
        <route edges="78117297#13 164121089#1 78111878#1 78111878#2 241572204#4 78113638#1 78113638#2 78113638#3 78104894#36 78104894#37 78104894#39 78104894#40 219015161#6 219015161#7 78116811#0"/>
    </vehicle>
    <vehicle id="millan ida-136" type="Default" depart="66.00" color="186,209,193">
        <route edges="164088679 78108804#0 78108804#1 78108804#2 78108804#3 78108804#6 78108804#7 78108804#8 78108804#9 78108804#10 78108804#11"/>
    </vehicle>
    <vehicle id="Propios ida-15" type="Default" depart="68.00" color="132,163,211">
        <route edges="78106571#0 78106571#1 78106571#2 78106571#3 78106571#4 78106571#5 78108816#1 78116644#1 78116644#2 78116644#3 78116644#4 78116644#5 78104894#28 78104894#29 78104894#30 78104894#31 164088677#0 164088677#1 164088677#2 -260980918#0 -176376526#5 78103006#1"/>
    </vehicle>
    <vehicle id="Propios ida-212" type="Default" depart="70.00" color="132,163,211">
        <route edges="164112635#0 78111878#0 164121089#2 164112301#2 164112298 78114146#0 78114146#1 78114146#2 78114146#3 78114146#4 164103646#0 164088677#0 164088677#1 164088677#2 164088677#3 164088677#4 164088677#5"/>
    </vehicle>
    <vehicle id="Propios ida-48" type="Default" depart="72.00" color="132,163,211">
        <route edges="164112635#0 78111878#0 164121089#2 164112301#2 164112298 78114146#0 78114146#1 78114146#2 78114146#3 78114146#4 164103646#0 164088677#0 164088677#1 164088677#2 164088677#3 164088677#4 164088677#5 78117418 -78116811#6 -78116811#5 78116811#5"/>
    </vehicle>
    <vehicle id="autos ida -447" type="Default" depart="73.00" color="198,128,14">
        <route edges="248424397#1 248424397#2 78108237 78115304#3 205233880 205233881 219015146#0 219015146#1 219015146#2 219015146#3 219015146#4 219015146#5 219015146#6 219015146#7 219015146#8 219015146#9 219015146#10 219015146#11 219015146#12 219015146#14 219015146#15 219015146#16 219015146#17 219015146#19 219015146#20 219015146#21 219015146#22 219015146#23 219015146#24 219015146#25 219015146#26 219015146#27 219015146#28 219015146#29 219015146#30 219015146#31 219015146#32 219015146#33 219015146#34 78104246"/>
    </vehicle>
    <vehicle id="Propios vuelta-211" type="Default" depart="74.00" color="196,236,121">
        <route edges="78116811#7 -78103006#1 176376526#5 176376723#2 176376723#3 176376723#4 176376723#5 176376723#6 164103645#2 -78114146#4 -78114146#3 -78114146#2 -78114146#1 -78114146#0 164112299"/>
    </vehicle>
    <vehicle id="autos vuelta-363" type="Default" depart="74.00" color="42,222,96">
        <route edges="78109741#1 -78109741#1 78104894#0 78104894#2 78104894#3 78104894#4 78104894#5 78104894#6 78104894#7 78104894#8 78104894#9 78104894#10 78104894#11 78104894#12 78104894#13 78104894#14 78104894#15 78104894#16 78104894#17 78104894#18 78104894#19 78104894#20 78104894#21 78104894#22 78104894#23 78104894#24 78104894#25 78104894#26 78104894#27 78104894#28 78104894#29 78104894#30 78104894#31 78104894#33 78104894#34 78104894#35 78104894#36 78104894#37 78104894#39 78104894#40 78104894#41 78104894#42 78104894#43 78104894#44 78104894#45 78104894#46 78104894#47 78104894#48 78104894#49 78104894#50 78104894#51 205233407#0 219015146#0 78106306 78110384 -78114894#0 78113125 78110057#2 217654229 78115304#1"/>
    </vehicle>
    <vehicle id="lanus vuelta-35" type="Default" depart="74.00" color="222,8,66">
        <route edges="-78108233#1 -78108233#0 78110502#0 78110502#1 219015146#26 219015146#27 219015146#28 175174060#2 -237181019 237181022#0 237181022#1 -237181022#1"/>
    </vehicle>
    <vehicle id="Propios ida-41" type="Default" depart="75.00" color="132,163,211">
        <route edges="78114146#1 78114146#2 78114146#3 78114146#4 164103646#0 164088677#0 164088677#1 164088677#2 164088677#3 -78109121#1"/>
    </vehicle>
    <vehicle id="Colman ida-97" type="Default" depart="76.00" color="184,2,59">
        <route edges="-78107174#0 78119363#1 78119363#2 78119363#3 78119363#4 78119363#5 78119363#8 78119363#9 -179076035#2 78103595#1 78105718#1 205233422#6 205233422#7"/>
    </vehicle>
    <vehicle id="Colman ida-108" type="Default" depart="77.00" color="184,2,59">
        <route edges="78119363#0 78119363#1 78119363#2 78119363#3 78119363#4 237181022#5 219015146#34 78109741#1 175346557#0 175346557#1 175346557#2 -205233422#7"/>
    </vehicle>
    <vehicle id="saravia vuelta-68" type="Default" depart="78.00" color="132,18,110">
        <route edges="78116435#0 -78110871#2 -78110871#1 -78110871#0 -78120431 219015146#6 -165264989#4 -165264989#3 -165264989#2"/>
    </vehicle>
    <vehicle id="autos ida -223" type="Default" depart="80.00" color="198,128,14">
        <route edges="78115304#1 78115304#2 78115304#3 205233880 205233881 219015146#0 219015146#1 219015146#2 219015146#3 219015146#4 219015146#5 219015146#6 219015146#7 219015146#8 219015146#9 219015146#10 219015146#11 219015146#12 219015146#14 219015146#15 219015146#16 219015146#17 219015146#19 219015146#20 219015146#21 219015146#22 219015146#23 219015146#24 219015146#25 219015146#26 219015146#27 219015146#28 219015146#29 219015146#30 219015146#31 219015146#32 219015146#33 219015146#34"/>
    </vehicle>
    <vehicle id="omnibus ida-14" type="Bus" depart="82.00" color="91,190,69">
        <route edges="205233404#0 205233404#1 205233404#2 205233404#3 205233404#4 205233404#5 205233404#6 205233404#8 205233404#9 205233404#11 205233404#12 205233404#13 205233404#14 205233404#15 205233404#16 205233404#17 205233404#18 205233404#19 205233404#20 205233404#21"/>
    </vehicle>
    <vehicle id="Propios vuelta-276" type="Default" depart="83.00" color="196,236,121">
        <route edges="164088677#3 -78109121#1 -78120381#1 -260980918#1 -260980918#0 176376723#2 176376723#3 176376723#4 176376723#5 176376723#6 164103645#2 -78114146#4 -78114146#3 -78114146#2 -78114146#1 78114146#1"/>
    </vehicle>
    <vehicle id="lanus ida-89" type="Default" depart="83.00" color="220,228,88">
        <route edges="78111251#5 237181019 175174062#0 175174062#1 78104894#11 78104894#12 78104894#13 78104894#14 78104894#15 78104894#16 78104894#17 78105824#6 78105824#7 78108141#2 -78120124#0"/>
    </vehicle>
    <vehicle id="lanus vuelta-28" type="Default" depart="83.00" color="222,8,66">
        <route edges="-78114813#7 -78114813#6 -78114813#5 -78114813#4 -78119061#2 78118724 219015146#28 175174060#2 -237181019 -78110457 78119278#3 78119278#4 -78119278#4"/>
    </vehicle>
    <vehicle id="autos ida -133" type="Default" depart="84.00" color="198,128,14">
        <route edges="-248424397#1 78115304#0 78115304#1 78115304#2 78115304#3 205233880 205233881 219015146#0 219015146#1 219015146#2 219015146#3 219015146#4 219015146#5 219015146#6 219015146#7 219015146#8 219015146#9 219015146#10 219015146#11 219015146#12 219015146#14 219015146#15 219015146#16 219015146#17 219015146#19 219015146#20 219015146#21 219015146#22 219015146#23 219015146#24 219015146#25 219015146#26 219015146#27 219015146#28 219015146#29 219015146#30 219015146#31 219015146#32 219015146#33 219015146#34 -78120102 78120102"/>
    </vehicle>
    <vehicle id="lanus vuelta-53" type="Default" depart="87.00" color="222,8,66">
        <route edges="-78114813#7 -78114813#6 -78114813#5 -78114813#4 -78119061#2 78118724 219015146#28 175174060#2 -237181019 -78110457 78119278#3 78118235#0"/>
    </vehicle>
    <vehicle id="Colman ida-2" type="Default" depart="88.00" color="184,2,59">
        <route edges="-78119363#1 78119363#1 78119363#2 78119363#3 78119363#4 237181022#5 219015146#34 78109741#1 175346557#0 175346557#1 175346557#2 -205233422#7"/>
    </vehicle>
    <vehicle id="Propios ida-184" type="Default" depart="88.00" color="132,163,211">
        <route edges="164112301#6 164112301#1 164112301#2 164112298 78114146#0 78114146#1 78114146#2 78114146#3 78114146#4 164103646#0 164088677#0 164088677#1 164088677#2 164088677#3 164088677#4 164088677#5 78117418 -78116811#6 -78116811#5 -78116811#4"/>
    </vehicle>
    <vehicle id="autos ida -370" type="Default" depart="90.00" color="198,128,14">
        <route edges="78115304#3 205233880 205233881 219015146#0 219015146#1 219015146#2 219015146#3 219015146#4 219015146#5 219015146#6 219015146#7 219015146#8 219015146#9 219015146#10 219015146#11 219015146#12 219015146#14 219015146#15 219015146#16 219015146#17 219015146#19 219015146#20 219015146#21 219015146#22 219015146#23 219015146#24 219015146#25 219015146#26 219015146#27 219015146#28 219015146#29 219015146#30 219015146#31 219015146#32 219015146#33 219015146#34 78109741#1"/>
    </vehicle>
    <vehicle id="Colman ida-69" type="Default" depart="93.00" color="184,2,59">
        <route edges="-78119363#0 78115663 78120102 78109741#1 175346557#0 78105820#0 78105820#1 78105718#0 78105718#1 -78105718#1"/>
    </vehicle>
    <vehicle id="autos ida -468" type="Default" depart="94.00" color="198,128,14">