<?xml version="1.0" encoding="UTF-8" standalone="no"?><!-- generated on 11/28/14 16:01:54 by SUMO netconvert Version 0.21.0
<?xml version="1.0" encoding="UTF-8"?>

<configuration xmlns:xsi="http://www.w3.org/2001/XMLSchema-instance" xsi:noNamespaceSchemaLocation="http://sumo-sim.org/xsd/netconvertConfiguration.xsd">

    <input>
        <node-files value="input_nodes.nod.xml"/>
        <connection-files value="input_connections.con.xml"/>
        <osm-files value="mapa_algevo2 _2.osm"/>
    </input>

    <output>
        <output-file value="berlin.net.xml"/>
    </output>

    <projection>
        <proj.utm value="true"/>
    </projection>

    <processing>
        <no-turnarounds.tls value="true"/>
        <geometry.remove value="true"/>
    </processing>

</configuration>
--><net xmlns:xsi="http://www.w3.org/2001/XMLSchema-instance" version="0.13" xsi:noNamespaceSchemaLocation="http://sumo-sim.org/xsd/net_file.xsd">

    <location convBoundary="0.00,0.00,3044.75,6600.50" netOffset="-569357.93,3857125.50" origBoundary="-56.241567,-34.853971,-56.208380,-34.794515" projParameter="+proj=utm +zone=21 +ellps=WGS84 +datum=WGS84 +units=m +no_defs"/>

    <edge function="internal" id=":1757472666_0">
        <lane id=":1757472666_0_0" index="0" length="3.54" shape="1946.23,2959.46 1942.70,2959.34" speed="12.50"/>
    </edge>
    <edge function="internal" id=":1757472666_1">
        <lane id=":1757472666_1_0" index="0" length="18.88" shape="1945.75,2956.19 1939.98,2955.93 1937.38,2954.05 1937.93,2950.54 1941.64,2945.40" speed="12.50"/>
    </edge>
    <edge function="internal" id=":1757472666_2">
        <lane id=":1757472666_2_0" index="0" length="10.35" shape="1946.79,2949.82 1945.21,2952.44 1944.96,2954.84 1944.61,2957.11 1942.70,2959.34" speed="12.50"/>
        <lane id=":1757472666_2_1" index="1" length="10.35" shape="1944.56,2947.38 1940.79,2956.64" speed="12.50"/>
    </edge>
    <edge function="internal" id=":1757472666_4">
        <lane id=":1757472666_4_0" index="0" length="8.13" shape="1936.98,2951.25 1938.39,2944.11" speed="12.50"/>
        <lane id=":1757472666_4_1" index="1" length="8.13" shape="1938.89,2953.95 1941.64,2945.40" speed="12.50"/>
    </edge>
    <edge function="internal" id=":1757472666_6">
        <lane id=":1757472666_6_0" index="0" length="2.41" shape="1938.89,2953.95 1940.37,2953.91 1941.19,2954.34" speed="12.50"/>
    </edge>
    <edge function="internal" id=":1757472666_7">
        <lane id=":1757472666_7_0" index="0" length="2.41" shape="1941.19,2954.34 1941.33,2955.26 1940.79,2956.64" speed="12.50"/>
    </edge>
    <edge function="internal" id=":1757472721_0">
        <lane id=":1757472721_0_0" index="0" length="5.44" shape="2282.05,2729.36 2281.36,2727.95 2280.44,2727.26 2279.29,2727.29 2277.91,2728.03" speed="12.50"/>
    </edge>
    <edge function="internal" id=":1757472721_1">
        <lane id=":1757472721_1_0" index="0" length="9.84" shape="2282.05,2729.36 2279.05,2719.99" speed="12.50"/>
    </edge>
    <edge function="internal" id=":1757472721_2">
        <lane id=":1757472721_2_0" index="0" length="4.82" shape="2282.05,2729.36 2282.45,2727.93 2283.11,2727.28 2284.02,2727.42 2285.19,2728.34" speed="12.50"/>
    </edge>
    <edge function="internal" id=":1757472721_3">
        <lane id=":1757472721_3_0" index="0" length="9.80" shape="2282.20,2719.01 2285.19,2728.34" speed="12.50"/>
    </edge>
    <edge function="internal" id=":1757472721_4">
        <lane id=":1757472721_4_0" index="0" length="10.69" shape="2282.20,2719.01 2282.49,2721.36 2281.87,2723.65 2280.34,2725.87 2277.91,2728.03" speed="12.50"/>
    </edge>
    <edge function="internal" id=":1757472721_5">
        <lane id=":1757472721_5_0" index="0" length="4.82" shape="2282.20,2719.01 2281.78,2720.43 2281.12,2721.07 2280.21,2720.93 2279.05,2719.99" speed="12.50"/>
    </edge>
    <edge function="internal" id=":1757472721_6">
        <lane id=":1757472721_6_0" index="0" length="6.60" shape="2275.95,2725.38 2277.60,2723.96 2278.67,2722.60 2279.15,2721.27 2279.05,2719.99" speed="12.50"/>
    </edge>
    <edge function="internal" id=":1757472721_7">
        <lane id=":1757472721_7_0" index="0" length="12.13" shape="2275.95,2725.38 2279.03,2723.72 2281.60,2723.66 2283.65,2725.20 2285.19,2728.34" speed="12.50"/>
    </edge>
    <edge function="internal" id=":1757472721_8">
        <lane id=":1757472721_8_0" index="0" length="4.82" shape="2275.95,2725.38 2277.44,2725.31 2278.26,2725.72 2278.42,2726.63 2277.91,2728.03" speed="12.50"/>
    </edge>
    <edge function="internal" id=":1757472723_0">
        <lane id=":1757472723_0_0" index="0" length="6.61" shape="1999.89,2888.02 1999.69,2890.05 2000.20,2891.03 2001.43,2890.97 2003.37,2889.86" speed="14.58"/>
    </edge>
    <edge function="internal" id=":1757472723_1">
        <lane id=":1757472723_1_0" index="0" length="4.98" shape="1999.89,2888.02 1999.08,2889.33 1998.25,2889.79 1997.38,2889.40 1996.48,2888.15" speed="12.50"/>
    </edge>
    <edge function="internal" id=":1757472723_2">
        <lane id=":1757472723_2_0" index="0" length="8.66" shape="1994.59,2896.60 1996.48,2888.15" speed="14.58"/>
    </edge>
    <edge function="internal" id=":1757472723_3">
        <lane id=":1757472723_3_0" index="0" length="10.87" shape="1994.59,2896.60 1997.04,2894.41 1998.81,2893.02 2000.67,2891.74 2003.37,2889.86" speed="16.67"/>
        <lane id=":1757472723_3_1" index="1" length="10.87" shape="1996.83,2899.02 1999.19,2896.92 2000.90,2895.58 2002.68,2894.35 2005.28,2892.54" speed="16.67"/>
    </edge>
    <edge function="internal" id=":1757629157_0">
        <lane id=":1757629157_0_0" index="0" length="14.63" shape="1964.24,2972.06 1963.01,2968.06 1961.32,2965.64 1958.84,2963.74 1955.24,2961.28" speed="14.58"/>
        <lane id=":1757629157_0_1" index="1" length="14.63" shape="1964.24,2972.06 1963.47,2967.75 1962.80,2964.67 1961.34,2962.11 1958.20,2959.35" speed="14.58"/>
    </edge>
    <edge function="internal" id=":1757629157_2">
        <lane id=":1757629157_2_0" index="0" length="14.44" shape="1964.24,2972.06 1963.41,2967.81 1963.01,2964.88 1962.73,2961.92 1962.26,2957.61" speed="16.67"/>
        <lane id=":1757629157_2_1" index="1" length="14.44" shape="1967.47,2971.36 1966.65,2967.20 1966.26,2964.32 1965.99,2961.43 1965.53,2957.21" speed="16.67"/>
    </edge>
    <edge function="internal" id=":1757679296_0">
        <lane id=":1757679296_0_0" index="0" length="5.44" shape="2417.22,2616.67 2416.54,2615.25 2415.63,2614.55 2414.48,2614.56 2413.09,2615.29" speed="14.58"/>
    </edge>
    <edge function="internal" id=":1757679296_1">
        <lane id=":1757679296_1_0" index="0" length="4.82" shape="2417.22,2616.67 2417.64,2615.24 2418.30,2614.60 2419.21,2614.75 2420.37,2615.69" speed="12.50"/>
    </edge>
    <edge function="internal" id=":1757679296_2">
        <lane id=":1757679296_2_0" index="0" length="6.60" shape="2421.08,2609.53 2420.23,2610.49 2419.83,2611.84 2419.87,2613.57 2420.37,2615.69" speed="14.58"/>
    </edge>
    <edge function="internal" id=":1757679296_3">
        <lane id=":1757679296_3_0" index="0" length="9.85" shape="2421.08,2609.53 2413.09,2615.29" speed="16.67"/>
        <lane id=":1757679296_3_1" index="1" length="9.85" shape="2419.15,2606.85 2411.16,2612.62" speed="16.67"/>
    </edge>
    <edge function="internal" id=":1757679297_0">
        <lane id=":1757679297_0_0" index="0" length="5.36" shape="2339.09,2672.83 2338.41,2671.46 2337.49,2670.77 2336.35,2670.75 2334.96,2671.41" speed="14.58"/>
    </edge>
    <edge function="internal" id=":1757679297_1">
        <lane id=":1757679297_1_0" index="0" length="4.82" shape="2339.09,2672.83 2339.49,2671.40 2340.14,2670.75 2341.05,2670.88 2342.22,2671.80" speed="12.50"/>
    </edge>
    <edge function="internal" id=":1757679297_2">
        <lane id=":1757679297_2_0" index="0" length="6.34" shape="2342.96,2665.91 2342.10,2666.87 2341.70,2668.17 2341.73,2669.81 2342.22,2671.80" speed="14.58"/>
    </edge>
    <edge function="internal" id=":1757679297_3">
        <lane id=":1757679297_3_0" index="0" length="9.64" shape="2342.96,2665.91 2334.96,2671.41" speed="16.67"/>
        <lane id=":1757679297_3_1" index="1" length="9.64" shape="2341.03,2663.23 2333.14,2668.66" speed="16.67"/>
    </edge>
    <edge function="internal" id=":1757679298_0">
        <lane id=":1757679298_0_0" index="0" length="9.37" shape="2303.91,2692.05 2296.43,2697.45" speed="16.67"/>
        <lane id=":1757679298_0_1" index="1" length="9.37" shape="2302.08,2689.31 2294.36,2694.88" speed="16.67"/>
    </edge>
    <edge function="internal" id=":1757679298_2">
        <lane id=":1757679298_2_0" index="0" length="6.78" shape="2302.08,2689.31 2299.60,2690.94 2297.81,2692.09 2296.73,2692.74 2296.34,2692.90" speed="14.58"/>
    </edge>
    <edge function="internal" id=":1757679298_3">
        <lane id=":1757679298_3_0" index="0" length="8.07" shape="2297.97,2688.22 2298.19,2689.69 2297.65,2691.29 2296.38,2693.02 2294.36,2694.88" speed="14.58"/>
    </edge>
    <edge function="internal" id=":1757679298_4">
        <lane id=":1757679298_4_0" index="0" length="7.25" shape="2297.97,2688.22 2299.32,2690.00 2299.50,2691.37 2298.51,2692.34 2296.34,2692.90" speed="12.50"/>
    </edge>
    <edge function="internal" id=":1757679299_0">
        <lane id=":1757679299_0_0" index="0" length="5.43" shape="2277.98,2716.57 2277.31,2715.15 2276.40,2714.45 2275.25,2714.46 2273.86,2715.18" speed="14.58"/>
    </edge>
    <edge function="internal" id=":1757679299_1">
        <lane id=":1757679299_1_0" index="0" length="4.82" shape="2277.98,2716.57 2278.40,2715.14 2279.07,2714.50 2279.98,2714.65 2281.13,2715.59" speed="12.50"/>
    </edge>
    <edge function="internal" id=":1757679299_2">
        <lane id=":1757679299_2_0" index="0" length="6.65" shape="2281.70,2709.32 2280.91,2710.32 2280.55,2711.70 2280.63,2713.45 2281.13,2715.59" speed="14.58"/>
    </edge>
    <edge function="internal" id=":1757679299_3">
        <lane id=":1757679299_3_0" index="0" length="9.69" shape="2281.70,2709.32 2273.86,2715.18" speed="16.67"/>
        <lane id=":1757679299_3_1" index="1" length="9.69" shape="2279.63,2706.75 2271.94,2712.50" speed="16.67"/>
    </edge>
    <edge function="internal" id=":1757688435_0">
        <lane id=":1757688435_0_0" index="0" length="2.20" shape="583.08,3955.57 582.66,3957.33" speed="12.50"/>
        <lane id=":1757688435_0_1" index="1" length="2.20" shape="579.88,3954.76 579.36,3957.31" speed="12.50"/>
    </edge>
    <edge function="internal" id=":1757688435_2">
        <lane id=":1757688435_2_0" index="0" length="2.29" shape="582.59,3955.45 582.66,3957.33" speed="12.50"/>
        <lane id=":1757688435_2_1" index="1" length="2.29" shape="579.26,3954.61 579.36,3957.31" speed="12.50"/>
    </edge>
    <edge function="internal" id=":1757688448_0">
        <lane id=":1757688448_0_0" index="0" length="5.08" shape="581.39,3980.30 576.39,3980.03" speed="12.50"/>
        <lane id=":1757688448_0_1" index="1" length="5.08" shape="580.34,3976.75 575.18,3976.96" speed="12.50"/>
    </edge>
    <edge function="internal" id=":1757688448_2">
        <lane id=":1757688448_2_0" index="0" length="6.91" shape="577.88,3972.84 576.39,3980.03" speed="12.50"/>
        <lane id=":1757688448_2_1" index="1" length="6.91" shape="575.40,3970.48 575.18,3976.96" speed="12.50"/>
    </edge>
    <edge function="internal" id=":1757688467_0">
        <lane id=":1757688467_0_0" index="0" length="5.72" shape="569.94,3932.67 574.63,3930.28" speed="12.50"/>
        <lane id=":1757688467_0_1" index="1" length="5.72" shape="569.08,3935.85 574.81,3933.57" speed="12.50"/>
    </edge>
    <edge function="internal" id=":1757688467_2">
        <lane id=":1757688467_2_0" index="0" length="5.52" shape="569.08,3935.85 573.82,3937.70" speed="12.50"/>
        <lane id=":1757688467_2_1" index="1" length="5.52" shape="569.08,3935.85 572.23,3940.89" speed="12.50"/>
    </edge>
    <edge function="internal" id=":1757688485_0">
        <lane id=":1757688485_0_0" index="0" length="8.03" shape="622.92,3917.63 617.45,3922.53" speed="12.50"/>
        <lane id=":1757688485_0_1" index="1" length="8.03" shape="620.97,3914.97 614.42,3920.74" speed="12.50"/>
    </edge>
    <edge function="internal" id=":1757688485_2">
        <lane id=":1757688485_2_0" index="0" length="4.82" shape="620.97,3914.97 619.48,3915.04 618.66,3914.61 618.51,3913.70 619.02,3912.31" speed="12.50"/>
    </edge>
    <edge function="internal" id=":1757688485_3">
        <lane id=":1757688485_3_0" index="0" length="10.81" shape="608.29,3915.51 611.21,3914.41 612.99,3913.20 614.62,3911.67 617.07,3909.65" speed="12.50"/>
        <lane id=":1757688485_3_1" index="1" length="10.81" shape="610.12,3918.41 613.09,3917.28 614.88,3915.99 616.52,3914.40 619.02,3912.31" speed="12.50"/>
    </edge>
    <edge function="internal" id=":1757688485_5">
        <lane id=":1757688485_5_0" index="0" length="11.04" shape="610.12,3918.41 614.54,3917.36 616.73,3917.40 616.69,3918.52 614.42,3920.74" speed="12.50"/>
    </edge>
    <edge function="internal" id=":1757688550_0">
        <lane id=":1757688550_0_0" index="0" length="9.51" shape="582.66,3957.53 587.32,3965.26" speed="12.50"/>
        <lane id=":1757688550_0_1" index="1" length="9.51" shape="582.66,3957.53 584.73,3967.30" speed="12.50"/>
    </edge>
    <edge function="internal" id=":1757688550_2">
        <lane id=":1757688550_2_0" index="0" length="10.60" shape="582.66,3957.53 582.66,3960.79 582.48,3963.06 581.83,3965.21 580.40,3968.11" speed="12.50"/>
        <lane id=":1757688550_2_1" index="1" length="10.60" shape="579.36,3957.51 579.33,3960.53 579.11,3962.61 578.46,3964.58 577.11,3967.26" speed="12.50"/>
    </edge>
    <edge function="internal" id=":1757690351_0">
        <lane id=":1757690351_0_0" index="0" length="17.10" shape="522.70,3938.81 527.61,3938.17 530.85,3937.07 533.90,3935.31 538.21,3932.71" speed="14.58"/>
        <lane id=":1757690351_0_1" index="1" length="17.10" shape="524.10,3942.01 529.10,3941.32 532.38,3940.13 535.45,3938.27 539.84,3935.58" speed="14.58"/>
    </edge>
    <edge function="internal" id=":1757690351_2">
        <lane id=":1757690351_2_0" index="0" length="17.49" shape="526.86,3945.98 529.12,3941.18 531.07,3938.00 533.75,3935.50 538.21,3932.71" speed="12.50"/>
        <lane id=":1757690351_2_1" index="1" length="17.49" shape="529.37,3948.40 531.47,3943.81 533.22,3940.71 535.66,3938.26 539.84,3935.58" speed="12.50"/>
    </edge>
    <edge function="internal" id=":1757690367_0">
        <lane id=":1757690367_0_0" index="0" length="12.46" shape="523.56,3961.84 523.18,3959.59 522.11,3957.22 520.35,3954.75 517.90,3952.17" speed="14.58"/>
        <lane id=":1757690367_0_1" index="1" length="12.46" shape="526.86,3961.79 526.44,3958.89 525.27,3956.00 523.35,3953.12 520.68,3950.25" speed="14.58"/>
    </edge>
    <edge function="internal" id=":1757690367_2">
        <lane id=":1757690367_2_0" index="0" length="12.70" shape="526.86,3961.79 526.20,3957.98 525.05,3955.32 524.42,3952.77 525.31,3949.29" speed="12.50"/>
        <lane id=":1757690367_2_1" index="1" length="12.70" shape="526.86,3961.79 526.75,3958.11 526.80,3955.54 527.35,3953.09 528.75,3949.73" speed="12.50"/>
    </edge>
    <edge function="internal" id=":1757698936_0">
        <lane id=":1757698936_0_0" index="0" length="8.84" shape="15.52,3474.06 14.45,3475.22 14.14,3476.33 14.60,3477.39 15.81,3478.39" speed="14.58"/>
        <lane id=":1757698936_0_1" index="1" length="8.84" shape="13.42,3471.51 11.03,3474.11 10.35,3476.59 11.37,3478.96 14.09,3481.21" speed="14.58"/>
    </edge>
    <edge function="internal" id=":1757698936_2">
        <lane id=":1757698936_2_0" index="0" length="8.74" shape="8.33,3473.84 15.81,3478.39" speed="16.67"/>
        <lane id=":1757698936_2_1" index="1" length="8.74" shape="6.64,3476.68 14.09,3481.21" speed="16.67"/>
    </edge>
    <edge function="internal" id=":1757698953_0">
        <lane id=":1757698953_0_0" index="0" length="9.54" shape="288.15,3712.86 281.18,3706.34" speed="16.67"/>
        <lane id=":1757698953_0_1" index="1" length="9.54" shape="290.40,3710.44 283.44,3703.94" speed="16.67"/>
    </edge>
    <edge function="internal" id=":1757698953_2">
        <lane id=":1757698953_2_0" index="0" length="6.67" shape="290.40,3710.44 284.89,3706.68" speed="14.58"/>
    </edge>
    <edge function="internal" id=":1757698953_3">
        <lane id=":1757698953_3_0" index="0" length="7.83" shape="290.24,3706.19 288.99,3706.83 287.44,3706.66 285.59,3705.70 283.44,3703.94" speed="14.58"/>
    </edge>
    <edge function="internal" id=":1757698953_4">
        <lane id=":1757698953_4_0" index="0" length="7.84" shape="290.24,3706.19 289.09,3708.32 287.81,3709.11 286.41,3708.56 284.89,3706.68" speed="12.50"/>
    </edge>
    <edge function="internal" id=":1858033113_0">
        <lane id=":1858033113_0_0" index="0" length="4.79" shape="1572.62,292.22 1569.92,288.26" speed="12.50"/>
    </edge>
    <edge function="internal" id=":1858033113_1">
        <lane id=":1858033113_1_0" index="0" length="4.82" shape="1572.62,292.22 1573.10,290.81 1573.79,290.20 1574.69,290.38 1575.81,291.36" speed="12.50"/>
    </edge>
    <edge function="internal" id=":1858033113_2">
        <lane id=":1858033113_2_0" index="0" length="5.50" shape="1573.46,286.40 1575.81,291.36" speed="12.50"/>
    </edge>
    <edge function="internal" id=":1858033113_3">
        <lane id=":1858033113_3_0" index="0" length="7.27" shape="1573.46,286.40 1573.59,288.79 1573.04,289.90 1571.82,289.72 1569.92,288.26" speed="12.50"/>
    </edge>
    <edge function="internal" id=":1858113996_0">
        <lane id=":1858113996_0_0" index="0" length="13.79" shape="1723.47,5458.96 1726.82,5457.13 1729.37,5455.97 1731.34,5454.36 1732.92,5451.18" speed="14.58"/>
        <lane id=":1858113996_0_1" index="1" length="13.79" shape="1725.30,5461.71 1729.17,5459.51 1732.05,5458.03 1734.24,5456.02 1736.05,5452.23" speed="14.58"/>
    </edge>
    <edge function="internal" id=":1858113996_2">
        <lane id=":1858113996_2_0" index="0" length="13.74" shape="1728.45,5464.15 1729.79,5460.30 1730.71,5457.67 1731.61,5455.03 1732.92,5451.18" speed="16.67"/>
        <lane id=":1858113996_2_1" index="1" length="13.74" shape="1731.57,5465.23 1732.91,5461.38 1733.83,5458.74 1734.74,5456.10 1736.05,5452.23" speed="16.67"/>
    </edge>
    <edge function="internal" id=":1858113997_0">
        <lane id=":1858113997_0_0" index="0" length="4.97" shape="1673.37,5486.54 1668.52,5485.44" speed="12.50"/>
    </edge>
    <edge function="internal" id=":1858113997_1">
        <lane id=":1858113997_1_0" index="0" length="8.52" shape="1673.26,5483.23 1670.36,5483.34 1669.19,5482.78 1669.73,5481.54 1672.00,5479.63" speed="12.50"/>
    </edge>
    <edge function="internal" id=":1858113997_2">
        <lane id=":1858113997_2_0" index="0" length="5.77" shape="1667.76,5482.23 1670.08,5476.95" speed="12.50"/>
    </edge>
    <edge function="internal" id=":1858113997_3">
        <lane id=":1858113997_3_0" index="0" length="4.82" shape="1667.76,5482.23 1669.15,5482.75 1669.74,5483.46 1669.53,5484.35 1668.52,5485.44" speed="12.50"/>
    </edge>
    <edge function="internal" id=":1859511369_0">
        <lane id=":1859511369_0_0" index="0" length="5.57" shape="1575.08,6157.01 1575.06,6155.60 1574.72,6154.30 1574.09,6153.10 1573.14,6152.00" speed="14.58"/>
    </edge>
    <edge function="internal" id=":1859511369_1">
        <lane id=":1859511369_1_0" index="0" length="4.24" shape="1575.08,6157.01 1575.64,6152.70" speed="16.67"/>
        <lane id=":1859511369_1_1" index="1" length="4.24" shape="1578.37,6157.30 1578.90,6153.20" speed="16.67"/>
    </edge>
    <edge function="internal" id=":1859529848_0">
        <lane id=":1859529848_0_0" index="0" length="0.11" shape="1636.93,5765.27 1636.92,5765.38" speed="12.50"/>
    </edge>
    <edge function="internal" id=":1859529848_1">
        <lane id=":1859529848_1_0" index="0" length="0.34" shape="1633.64,5765.01 1633.69,5764.67" speed="12.50"/>
    </edge>
    <edge function="internal" id=":1869057017_0">
        <lane id=":1869057017_0_0" index="0" length="11.86" shape="2503.65,2540.47 2501.01,2538.56 2498.88,2536.95 2496.79,2535.28 2494.28,2533.20" speed="12.50"/>
    </edge>
    <edge function="internal" id=":1869057017_1">
        <lane id=":1869057017_1_0" index="0" length="8.91" shape="2503.65,2540.47 2502.29,2538.97 2502.16,2537.30 2503.26,2535.46 2505.57,2533.44" speed="14.58"/>
    </edge>
    <edge function="internal" id=":1869057017_2">
        <lane id=":1869057017_2_0" index="0" length="4.82" shape="2503.65,2540.47 2503.12,2539.08 2503.27,2538.17 2504.09,2537.74 2505.57,2537.79" speed="12.50"/>
    </edge>
    <edge function="internal" id=":1869057017_3">
        <lane id=":1869057017_3_0" index="0" length="7.89" shape="2496.40,2530.69 2498.12,2531.76 2499.91,2532.13 2501.75,2531.80 2503.65,2530.76" speed="14.58"/>
    </edge>
    <edge function="internal" id=":1869057017_4">
        <lane id=":1869057017_4_0" index="0" length="11.61" shape="2496.40,2530.69 2498.88,2532.74 2500.90,2534.35 2502.97,2535.90 2505.57,2537.79" speed="12.50"/>
    </edge>
    <edge function="internal" id=":1869057017_5">
        <lane id=":1869057017_5_0" index="0" length="4.80" shape="2496.40,2530.69 2496.81,2532.11 2496.60,2533.00 2495.75,2533.37 2494.28,2533.20" speed="12.50"/>
    </edge>
    <edge function="internal" id=":1869057017_6">
        <lane id=":1869057017_6_0" index="0" length="5.34" shape="2494.10,2537.56 2495.20,2536.52 2495.60,2535.44 2495.30,2534.34 2494.28,2533.20" speed="14.58"/>
    </edge>
    <edge function="internal" id=":1869057017_7">
        <lane id=":1869057017_7_0" index="0" length="11.74" shape="2494.10,2537.56 2496.94,2535.55 2498.88,2534.18 2500.82,2532.79 2503.65,2530.76" speed="16.67"/>
        <lane id=":1869057017_7_1" index="1" length="11.74" shape="2496.00,2540.26 2498.85,2538.25 2500.80,2536.87 2502.74,2535.48 2505.57,2533.44" speed="16.67"/>
    </edge>
    <edge function="internal" id=":1869057017_9">
        <lane id=":1869057017_9_0" index="0" length="10.44" shape="2496.00,2540.26 2499.06,2538.37 2501.67,2537.33 2503.84,2537.13 2505.57,2537.79" speed="14.58"/>
    </edge>
    <edge function="internal" id=":1894071861_0">
        <lane id=":1894071861_0_0" index="0" length="4.82" shape="2133.48,220.76 2134.97,220.73 2135.78,221.17 2135.92,222.08 2135.38,223.47" speed="12.50"/>
    </edge>
    <edge function="internal" id=":1894127311_0">
        <lane id=":1894127311_0_0" index="0" length="10.13" shape="2296.27,2692.72 2295.11,2689.96 2294.23,2688.08 2293.19,2686.29 2291.58,2683.76" speed="12.50"/>
    </edge>
    <edge function="internal" id=":1894127311_1">
        <lane id=":1894127311_1_0" index="0" length="9.27" shape="2296.27,2692.72 2296.11,2691.19 2296.81,2689.42 2298.37,2687.42 2300.79,2685.19" speed="14.58"/>
    </edge>
    <edge function="internal" id=":1894127311_2">
        <lane id=":1894127311_2_0" index="0" length="7.25" shape="2296.27,2692.72 2294.92,2690.94 2294.74,2689.56 2295.73,2688.59 2297.90,2688.03" speed="12.50"/>
    </edge>
    <edge function="internal" id=":1894127311_3">
        <lane id=":1894127311_3_0" index="0" length="5.14" shape="2294.35,2681.97 2295.30,2683.05 2296.33,2683.53 2297.46,2683.39 2298.69,2682.65" speed="14.58"/>
    </edge>
    <edge function="internal" id=":1894127311_4">
        <lane id=":1894127311_4_0" index="0" length="7.02" shape="2294.35,2681.97 2297.90,2688.03" speed="12.50"/>
    </edge>
    <edge function="internal" id=":1894127311_5">
        <lane id=":1894127311_5_0" index="0" length="4.82" shape="2294.35,2681.97 2294.33,2683.46 2293.86,2684.25 2292.95,2684.36 2291.58,2683.76" speed="12.50"/>
    </edge>
    <edge function="internal" id=":1894127311_6">
        <lane id=":1894127311_6_0" index="0" length="6.03" shape="2290.29,2688.93 2291.58,2687.78 2292.22,2686.54 2292.22,2685.20 2291.58,2683.76" speed="14.58"/>
    </edge>
    <edge function="internal" id=":1894127311_7">
        <lane id=":1894127311_7_0" index="0" length="10.64" shape="2290.29,2688.93 2292.86,2687.17 2294.60,2685.93 2296.28,2684.62 2298.69,2682.65" speed="16.67"/>
        <lane id=":1894127311_7_1" index="1" length="10.64" shape="2292.15,2691.65 2294.80,2689.85 2296.58,2688.57 2298.31,2687.22 2300.79,2685.19" speed="16.67"/>
    </edge>
    <edge function="internal" id=":1894127311_9">
        <lane id=":1894127311_9_0" index="0" length="6.80" shape="2292.15,2691.65 2294.63,2689.98 2296.41,2688.82 2297.50,2688.17 2297.90,2688.03" speed="14.58"/>
    </edge>
    <edge function="internal" id=":1894127732_0">
        <lane id=":1894127732_0_0" index="0" length="6.11" shape="736.30,4141.62 735.10,4140.45 733.81,4139.88 732.41,4139.93 730.92,4140.58" speed="12.50"/>
    </edge>
    <edge function="internal" id=":1894127732_1">
        <lane id=":1894127732_1_0" index="0" length="10.33" shape="736.30,4141.62 734.42,4139.20 733.13,4137.54 731.85,4135.88 729.97,4133.45" speed="12.50"/>
        <lane id=":1894127732_1_1" index="1" length="10.33" shape="738.90,4139.60 737.03,4137.18 735.74,4135.52 734.45,4133.86 732.57,4131.43" speed="12.50"/>
    </edge>
    <edge function="internal" id=":1894127732_3">
        <lane id=":1894127732_3_0" index="0" length="6.79" shape="738.90,4139.60 734.21,4134.69" speed="12.50"/>
    </edge>
    <edge function="internal" id=":1894127732_4">
        <lane id=":1894127732_4_0" index="0" length="10.09" shape="739.57,4135.40 736.99,4136.90 735.22,4137.94 733.46,4139.01 730.92,4140.58" speed="12.50"/>
    </edge>
    <edge function="internal" id=":1894127732_5">
        <lane id=":1894127732_5_0" index="0" length="8.67" shape="739.57,4135.40 738.12,4135.74 736.47,4135.19 734.62,4133.76 732.57,4131.43" speed="12.50"/>
    </edge>
    <edge function="internal" id=":1894127732_6">
        <lane id=":1894127732_6_0" index="0" length="7.90" shape="739.57,4135.40 737.97,4137.23 736.54,4137.72 735.29,4136.88 734.21,4134.69" speed="12.50"/>
    </edge>
    <edge function="internal" id=":1894127732_7">
        <lane id=":1894127732_7_0" index="0" length="5.13" shape="729.18,4137.77 730.28,4136.85 730.78,4135.83 730.67,4134.69 729.97,4133.45" speed="12.50"/>
    </edge>
    <edge function="internal" id=":1894127732_8">
        <lane id=":1894127732_8_0" index="0" length="5.90" shape="729.18,4137.77 734.21,4134.69" speed="12.50"/>
    </edge>
    <edge function="internal" id=":1894127732_9">
        <lane id=":1894127732_9_0" index="0" length="4.82" shape="729.18,4137.77 730.67,4137.82 731.45,4138.31 731.54,4139.22 730.92,4140.58" speed="12.50"/>
    </edge>
    <edge function="internal" id=":1898862972_0">
        <lane id=":1898862972_0_0" index="0" length="11.82" shape="2247.40,1278.03 2244.48,1279.46 2242.09,1280.62 2239.71,1281.79 2236.79,1283.21" speed="12.50"/>
    </edge>
    <edge function="internal" id=":1898862972_1">
        <lane id=":1898862972_1_0" index="0" length="12.88" shape="2247.40,1278.03 2244.86,1278.76 2241.99,1278.63 2238.77,1277.65 2235.22,1275.81" speed="12.50"/>
    </edge>
    <edge function="internal" id=":1898862972_2">
        <lane id=":1898862972_2_0" index="0" length="4.82" shape="2247.40,1278.03 2245.93,1277.83 2245.20,1277.27 2245.21,1276.35 2245.96,1275.06" speed="12.50"/>
    </edge>
    <edge function="internal" id=":1898862972_3">
        <lane id=":1898862972_3_0" index="0" length="10.32" shape="2236.28,1272.60 2239.35,1274.25 2241.98,1275.21 2244.18,1275.48 2245.96,1275.06" speed="12.50"/>
    </edge>
    <edge function="internal" id=":1898862972_4">
        <lane id=":1898862972_4_0" index="0" length="14.82" shape="2236.28,1272.60 2240.03,1275.52 2241.36,1278.26 2240.28,1280.83 2236.79,1283.21" speed="12.50"/>
    </edge>
    <edge function="internal" id=":1898862972_5">
        <lane id=":1898862972_5_0" index="0" length="4.94" shape="2236.28,1272.60 2237.22,1273.80 2237.36,1274.74 2236.69,1275.41 2235.22,1275.81" speed="12.50"/>
    </edge>
    <edge function="internal" id=":1898862972_6">
        <lane id=":1898862972_6_0" index="0" length="6.19" shape="2235.34,1280.25 2236.82,1279.24 2237.30,1278.17 2236.76,1277.02 2235.22,1275.81" speed="12.50"/>
    </edge>
    <edge function="internal" id=":1898862972_7">
        <lane id=":1898862972_7_0" index="0" length="11.82" shape="2235.34,1280.25 2238.26,1278.82 2240.65,1277.66 2243.03,1276.49 2245.96,1275.06" speed="12.50"/>
    </edge>
    <edge function="internal" id=":1898862972_8">
        <lane id=":1898862972_8_0" index="0" length="4.82" shape="2235.34,1280.25 2236.81,1280.45 2237.54,1281.01 2237.54,1281.93 2236.79,1283.21" speed="12.50"/>
    </edge>
    <edge function="internal" id=":1989914663_0">
        <lane id=":1989914663_0_0" index="0" length="5.06" shape="1185.47,411.90 1184.54,410.91 1183.50,410.45 1182.35,410.54 1181.09,411.16" speed="12.50"/>
    </edge>
    <edge function="internal" id=":1989914663_1">
        <lane id=":1989914663_1_0" index="0" length="9.52" shape="1185.47,411.90 1179.98,404.12" speed="12.50"/>
    </edge>
    <edge function="internal" id=":1989914663_2">
        <lane id=":1989914663_2_0" index="0" length="4.82" shape="1185.47,411.90 1185.44,410.42 1185.89,409.61 1186.80,409.47 1188.18,410.02" speed="12.50"/>
    </edge>
    <edge function="internal" id=":1989914663_3">
        <lane id=":1989914663_3_0" index="0" length="5.01" shape="1188.95,405.69 1187.95,406.63 1187.49,407.67 1187.57,408.80 1188.18,410.02" speed="12.50"/>
    </edge>
    <edge function="internal" id=":1989914663_4">