<?xml version="1.0" encoding="UTF-8"?>

<!-- generated on 11/28/14 16:30:16 by SUMO duarouter Version 0.22.0
<?xml version="1.0" encoding="UTF-8"?>

<configuration xmlns:xsi="http://www.w3.org/2001/XMLSchema-instance" xsi:noNamespaceSchemaLocation="http://sumo.dlr.de/xsd/duarouterConfiguration.xsd">

    <input>
        <net-file value="sim.xml"/>
        <trip-files value="sim.generated-trips.xml"/>
    </input>

    <output>
        <output-file value="sim.rou.xml"/>
    </output>

    <processing>
        <ignore-errors value="true"/>
    </processing>

</configuration>
-->

<routes xmlns:xsi="http://www.w3.org/2001/XMLSchema-instance" xsi:noNamespaceSchemaLocation="http://sumo.dlr.de/xsd/routes_file.xsd">
    <vType id="Default" length="5.00" maxSpeed="70.00">
        <carFollowing-Krauss accel="2.60" decel="4.50" sigma="0.50"/>
    </vType>
    <vehicle id="Area Flow 1-210" type="Default" depart="1.00" color="46,234,132">
        <route edges="205233642#5 -205233642#5 78102637#0 78102637#1 -219015149#3 -219015149#2 -219015149#1 -219015149#0 219015146#4 219015146#5 219015146#6 219015146#7 219015146#8 219015146#9 219015146#10 219015146#11 219015146#12 219015146#14 219015146#15 219015146#16 219015146#17 219015146#19 219015146#20 219015146#21 219015146#22 219015146#23 219015146#24 219015146#25 219015146#26 78114495 78119061#1 78119061#2 -78114813#3 78103306 -78103306"/>
    </vehicle>
    <vehicle id="Area Flow 1-942" type="Default" depart="13.00" color="46,234,132">
        <route edges="-78118232 78105546#2 219015146#4 219015146#5 219015146#6 219015146#7 219015146#8 219015146#9 219015146#10 219015146#11 219015146#12 219015146#14 219015146#15 219015146#16 219015146#17 219015146#19 219015146#20 219015146#21 219015146#22 219015146#23 219015146#24 219015146#25 219015146#26 78114495 78119061#1 78119061#2 -78114813#3 78103306 -78113091#0 78119363#9 -78105820#2 -78105820#1 -78105820#0 78105820#0"/>
    </vehicle>
    <vehicle id="Area Flow 1-545" type="Default" depart="25.00" color="46,234,132">
        <route edges="-78120448#1 78102758#2 78102758#3 241572210#1 -78116573#6 -78116573#5 -78116573#4 -78116573#3 -78116573#2 -78116573#1 -78116573#0 219015161#3 219015146#11 219015146#12 219015146#14 219015146#15 219015146#16 219015146#17 219015146#19 219015146#20 219015146#21 219015146#22 219015146#23 219015146#24 219015146#25 219015146#26 219015146#27 219015146#28 219015146#29 219015146#30"/>
    </vehicle>
    <vehicle id="Area Flow 1-632" type="Default" depart="38.00" color="46,234,132">
        <route edges="-78114894#0 78114894#0 -78110384 -78106306 219015146#1 219015146#2 219015146#3 219015146#4 219015146#5 219015146#6 219015146#7 219015146#8 219015146#9 219015146#10 219015146#11 219015146#12 219015146#14 219015146#15 219015146#16 219015146#17 219015146#19 219015146#20 219015146#21 219015146#22 219015146#23 219015146#24 219015146#25 219015146#26 219015146#27 219015146#28 175174060#2 -237181019 237181022#0 237181022#1 237181022#2 -78107174#2 -78119278#0"/>
    </vehicle>
    <vehicle id="Area Flow 1-226" type="Default" depart="46.00" color="46,234,132">
        <route edges="248424397#0 78115304#0 78115304#1 78115304#2 78115304#3 205233880 205233881 219015146#0 219015146#1 219015146#2 219015146#3 219015146#4 219015146#5 219015146#6 219015146#7 219015146#8 219015146#9 219015146#10 219015146#11 219015146#12 219015146#14 219015146#15 219015146#16 219015146#17 219015146#19 219015146#20 219015146#21 219015146#22 219015146#23 219015146#24 219015146#25 219015146#26 78114495 78119061#1 78119061#2 -78114813#3 78103306"/>
    </vehicle>
    <vehicle id="Area Flow 1-5" type="Default" depart="54.00" color="46,234,132">
        <route edges="78114894#1 -219015159#8 -219015159#7 -219015159#6 219015146#2 219015146#3 219015146#4 219015146#5 219015146#6 219015146#7 219015146#8 219015146#9 219015146#10 219015146#11 219015146#12 219015146#14 219015146#15 219015146#16 219015146#17 219015146#19 219015146#20 219015146#21 219015146#22 219015146#23 219015146#24 219015146#25 219015146#26 219015146#27 219015146#28 175174060#2 -237181019 237181022#0 237181022#1 237181022#2 237181022#3 237181022#4"/>
    </vehicle>
    <vehicle id="Area Flow 1-781" type="Default" depart="59.00" color="46,234,132">
        <route edges="248424397#1 248424397#2 78108237 78115304#3 205233880 205233881 219015146#0 219015146#1 219015146#2 219015146#3 219015146#4 219015146#5 219015146#6 219015146#7 219015146#8 219015146#9 219015146#10 219015146#11 219015146#12 219015146#14 219015146#15 219015146#16 219015146#17 219015146#19 219015146#20 219015146#21 219015146#22 219015146#23 219015146#24 219015146#25 219015146#26 78114495 78119061#1 78119061#2 78114813#4 78114813#5 78103595#0 78103595#1"/>
    </vehicle>
    <vehicle id="Area Flow 1-592" type="Default" depart="60.00" color="46,234,132">
        <route edges="78104577#3 -78104577#3 -78104577#2 -78104577#1 219015159#3 219015146#2 219015146#3 219015146#4 219015146#5 219015146#6 219015146#7 219015146#8 219015146#9 219015146#10 219015146#11 219015146#12 219015146#14 219015146#15 219015146#16 219015146#17 219015146#19 219015146#20 219015146#21 219015146#22 219015146#23 219015146#24 219015146#25 219015146#26 78114495 78119061#1 78119061#2 78114813#4 78114813#5 78103595#0 78103595#1 -78103595#1"/>
    </vehicle>
    <vehicle id="Area Flow 1-437" type="Default" depart="80.00" color="46,234,132">
        <route edges="78105309#2 -78104577#2 -78104577#1 219015159#3 219015146#2 219015146#3 219015146#4 219015146#5 219015146#6 219015146#7 219015146#8 219015146#9 219015146#10 219015146#11 219015146#12 219015146#14 219015146#15 219015146#16 219015146#17 219015146#19 219015146#20 219015146#21 219015146#22 219015146#23 219015146#24 219015146#25 219015146#26 219015146#27 219015146#28 219015146#29 219015146#30 219015146#31 219015146#32 219015146#33 219015146#34 219015146#35 -78109741#0 -78120102"/>
    </vehicle>
    <vehicle id="Area Flow 1-409" type="Default" depart="89.00" color="46,234,132">
        <route edges="78120431 -78120431 219015146#6 219015146#7 219015146#8 219015146#9 219015146#10 219015146#11 219015146#12 219015146#14 219015146#15 219015146#16 219015146#17 219015146#19 219015146#20 219015146#21 219015146#22 219015146#23 219015146#24 219015146#25 219015146#26 78114495 78119061#1 78119061#2 -78114813#3 78103306 -78113091#0 -78119363#8 -78119363#5"/>
    </vehicle>
    <vehicle id="Area Flow 1-492" type="Default" depart="91.00" color="46,234,132">
        <route edges="219015146#4 219015146#5 219015146#6 219015146#7 219015146#8 219015146#9 219015146#10 219015146#11 219015146#12 219015146#14 219015146#15 219015146#16 219015146#17 219015146#19 219015146#20 219015146#21 219015146#22 219015146#23 219015146#24 219015146#25 219015146#26 78114495 78119061#1 78119061#2 -78114813#3 78103306 -78113091#0 -78119363#8 78104894#5"/>
    </vehicle>
    <vehicle id="Area Flow 1-311" type="Default" depart="92.00" color="46,234,132">
        <route edges="78098520 -78098520 -219015149#3 -219015149#2 -219015149#1 -219015149#0 219015146#4 219015146#5 219015146#6 219015146#7 219015146#8 219015146#9 219015146#10 219015146#11 219015146#12 219015146#14 219015146#15 219015146#16 219015146#17 219015146#19 219015146#20 219015146#21 219015146#22 219015146#23 219015146#24 219015146#25 219015146#26 78114495 78119061#1 78119061#2 78114813#4 78114813#5 78103595#0 78103595#1 78105718#1"/>
    </vehicle>
    <vehicle id="Area Flow 1-90" type="Default" depart="93.00" color="46,234,132">
        <route edges="78113125 -78113125 78114894#0 -78110384 -78106306 219015146#1 219015146#2 219015146#3 219015146#4 219015146#5 219015146#6 219015146#7 219015146#8 219015146#9 219015146#10 219015146#11 219015146#12 219015146#14 219015146#15 219015146#16 219015146#17 219015146#19 219015146#20 219015146#21 219015146#22 219015146#23 219015146#24 219015146#25 219015146#26 78114495 78119061#1 78119061#2 -78114813#3 78103306 -78113091#0 78119363#9 -78105820#2 -78105820#1 78099492 -250585479"/>
    </vehicle>
    <vehicle id="Area Flow 1-716" type="Default" depart="94.00" color="46,234,132">
        <route edges="78105569#2 78099496#0 78105309#7 78102758#1 78102758#2 78102758#3 241572210#1 -78116573#6 -78116573#5 -78116573#4 -78116573#3 -78116573#2 -78116573#1 -78116573#0 219015161#3 219015146#11 219015146#12 219015146#14 219015146#15 219015146#16 219015146#17 219015146#19 219015146#20 219015146#21 219015146#22 219015146#23 219015146#24 219015146#25 219015146#26 78114495 78119061#1 78119061#2 -78114813#3 78103306 -78113091#0 -78119363#8"/>
    </vehicle>
    <vehicle id="Area Flow 1-183" type="Default" depart="100.00" color="46,234,132">
        <route edges="78116435#1 -219015147#3 -219015147#2 -219015147#1 -219015147#0 219015146#7 219015146#8 219015146#9 219015146#10 219015146#11 219015146#12 219015146#14 219015146#15 219015146#16 219015146#17 219015146#19 219015146#20 219015146#21 219015146#22 219015146#23 219015146#24 219015146#25 219015146#26 78114495 78119061#1 78119061#2 -78114813#3 78103306 -78113091#0 -78119363#8 78104894#5 78104894#6"/>
    </vehicle>
    <vehicle id="Area Flow 1-628" type="Default" depart="100.00" color="46,234,132">
        <route edges="205233404#3 -165264989#4 165264989#4 219015146#7 219015146#8 219015146#9 219015146#10 219015146#11 219015146#12 219015146#14 219015146#15 219015146#16 219015146#17 219015146#19 219015146#20 219015146#21 219015146#22 219015146#23 219015146#24 219015146#25 219015146#26 219015146#27 219015146#28 175174060#2 -237181019 -78110457 78110457"/>
    </vehicle>
    <vehicle id="Area Flow 1-925" type="Default" depart="103.00" color="46,234,132">
        <route edges="-78100805#0 -78116573#5 -78116573#4 -78116573#3 -78116573#2 -78116573#1 -78116573#0 219015161#3 219015146#11 219015146#12 219015146#14 219015146#15 219015146#16 219015146#17 219015146#19 219015146#20 219015146#21 219015146#22 219015146#23 219015146#24 219015146#25 219015146#26 219015146#27 219015146#28 175174060#2 -237181019 237181022#0 237181022#1 237181022#2 -78107174#2 -78107174#1 78114423 -78114423"/>
    </vehicle>
    <vehicle id="Area Flow 1-991" type="Default" depart="105.00" color="46,234,132">
        <route edges="-78119989 78102758#3 241572210#1 -78116573#6 -78116573#5 -78116573#4 -78116573#3 -78116573#2 -78116573#1 -78116573#0 219015161#3 219015146#11 219015146#12 219015146#14 219015146#15 219015146#16 219015146#17 219015146#19 219015146#20 219015146#21 219015146#22 219015146#23 219015146#24 219015146#25 219015146#26 78114495 78119061#1 78119061#2 -78114813#3 78103306 -78113091#0 78119363#9 -78105820#2 -78105820#1 -78105820#0 -175346557#0"/>
    </vehicle>
    <vehicle id="Area Flow 1-187" type="Default" depart="120.00" color="46,234,132">
        <route edges="-78120448#7 -78120448#6 -78104577#1 219015159#3 219015146#2 219015146#3 219015146#4 219015146#5 219015146#6 219015146#7 219015146#8 219015146#9 219015146#10 219015146#11 219015146#12 219015146#14 219015146#15 219015146#16 219015146#17 219015146#19 219015146#20 219015146#21 219015146#22 219015146#23 219015146#24 219015146#25 219015146#26 78114495 78119061#1 78119061#2 78114813#4 78114813#5 78103595#0 78103595#1 -78105718#0"/>
    </vehicle>
    <vehicle id="Area Flow 1-108" type="Default" depart="123.00" color="46,234,132">
        <route edges="78104853 -78104853 219015146#5 219015146#6 219015146#7 219015146#8 219015146#9 219015146#10 219015146#11 219015146#12 219015146#14 219015146#15 219015146#16 219015146#17 219015146#19 219015146#20 219015146#21 219015146#22 219015146#23 219015146#24 219015146#25 219015146#26 78114495 78119061#1 78119061#2 -78114813#3 78103306 -78113091#0 -78119363#8 -78119363#5 -78119363#4 78110526"/>
    </vehicle>
    <vehicle id="Area Flow 1-841" type="Default" depart="132.00" color="46,234,132">
        <route edges="78102758#3 241572210#1 -78116573#6 -78116573#5 -78116573#4 -78116573#3 -78116573#2 -78116573#1 -78116573#0 219015161#3 219015146#11 219015146#12 219015146#14 219015146#15 219015146#16 219015146#17 219015146#19 219015146#20 219015146#21 219015146#22 219015146#23 219015146#24 219015146#25 219015146#26 78114495 78119061#1 78119061#2 -78114813#3 78103306 -78113091#0 -78119363#8 -78119363#5 -78119363#4 -78119363#3 -78119363#2 -78119363#1 78119363#1"/>
    </vehicle>
    <vehicle id="Area Flow 1-900" type="Default" depart="139.00" color="46,234,132">
        <route edges="-78099611 -78110871#0 -78120431 219015146#6 219015146#7 219015146#8 219015146#9 219015146#10 219015146#11 219015146#12 219015146#14 219015146#15 219015146#16 219015146#17 219015146#19 219015146#20 219015146#21 219015146#22 219015146#23 219015146#24 219015146#25 219015146#26 78114495 78119061#1 78119061#2 -78114813#3 78103306 -78113091#0 -78119363#8 -78119363#5 -237181022#4"/>
    </vehicle>
    <vehicle id="Area Flow 1-551" type="Default" depart="144.00" color="46,234,132">
        <route edges="-219015159#8 -219015159#7 -219015159#6 219015146#2 219015146#3 219015146#4 219015146#5 219015146#6 219015146#7 219015146#8 219015146#9 219015146#10 219015146#11 219015146#12 219015146#14 219015146#15 219015146#16 219015146#17 219015146#19 219015146#20 219015146#21 219015146#22 219015146#23 219015146#24 219015146#25 219015146#26 78114495 78119061#1 78119061#2 -78114813#3 78103306 -78113091#0 78119363#9 -78105820#2 -78105820#1 78099492 -250585479 175346557#2"/>
    </vehicle>
    <vehicle id="Area Flow 1-388" type="Default" depart="148.00" color="46,234,132">
        <route edges="219015149#1 -219015149#1 -219015149#0 219015146#4 219015146#5 219015146#6 219015146#7 219015146#8 219015146#9 219015146#10 219015146#11 219015146#12 219015146#14 219015146#15 219015146#16 219015146#17 219015146#19 219015146#20 219015146#21 219015146#22 219015146#23 219015146#24 219015146#25 219015146#26 78114495 78119061#1 78119061#2 -78114813#3 78103306 -78113091#0 78119363#9 -78105820#2 -78105820#1 78099492 -250585479 250585479"/>
    </vehicle>
    <vehicle id="Area Flow 1-452" type="Default" depart="151.00" color="46,234,132">
        <route edges="78105309#5 78118731#1 78120448#3 78120448#4 78120448#5 -78104577#1 219015159#3 219015146#2 219015146#3 219015146#4 219015146#5 219015146#6 219015146#7 219015146#8 219015146#9 219015146#10 219015146#11 219015146#12 219015146#14 219015146#15 219015146#16 219015146#17 219015146#19 219015146#20 219015146#21 219015146#22 219015146#23 219015146#24 219015146#25 219015146#26 78114495 78119061#1 78119061#2 -78114813#3 78103306 -78113091#0 -78119363#8 -78119363#5 -78119363#4 -78119363#3"/>
    </vehicle>
    <vehicle id="Area Flow 1-440" type="Default" depart="156.00" color="46,234,132">
        <route edges="205233642#3 -205233642#3 -78108092 78102637#1 -219015149#3 -219015149#2 -219015149#1 -219015149#0 219015146#4 219015146#5 219015146#6 219015146#7 219015146#8 219015146#9 219015146#10 219015146#11 219015146#12 219015146#14 219015146#15 219015146#16 219015146#17 219015146#19 219015146#20 219015146#21 219015146#22 219015146#23 219015146#24 219015146#25 219015146#26 219015146#27 219015146#28 219015146#29 219015146#30 219015146#31 219015146#32 219015146#33"/>
    </vehicle>
    <vehicle id="Area Flow 1-408" type="Default" depart="157.00" color="46,234,132">
        <route edges="78120500#0 -78120500#0 78120448#5 -78104577#1 219015159#3 219015146#2 219015146#3 219015146#4 219015146#5 219015146#6 219015146#7 219015146#8 219015146#9 219015146#10 219015146#11 219015146#12 219015146#14 219015146#15 219015146#16 219015146#17 219015146#19 219015146#20 219015146#21 219015146#22 219015146#23 219015146#24 219015146#25 219015146#26 219015146#27 219015146#28 219015146#29 219015146#30 219015146#31 219015146#32 219015146#33 219015146#34 219015146#35 -78109741#0 78104894#0 78104894#1 78104894#2 78104894#3 -205233404#22 -205233404#21 -205233404#20"/>
    </vehicle>
    <vehicle id="Area Flow 1-331" type="Default" depart="160.00" color="46,234,132">
        <route edges="-78110912#1 78120022 -78116573#3 -78116573#2 -78116573#1 -78116573#0 219015161#3 219015146#11 219015146#12 219015146#14 219015146#15 219015146#16 219015146#17 219015146#19 219015146#20 219015146#21 219015146#22 219015146#23 219015146#24 219015146#25 219015146#26 219015146#27 219015146#28 219015146#29 219015146#30 219015146#31 219015146#32 219015146#33 219015146#34 219015146#35 -78109741#0 78104894#0 78104894#1 217654218#0 217654218#1 217654218#2"/>
    </vehicle>
    <vehicle id="Area Flow 1-535" type="Default" depart="166.00" color="46,234,132">
        <route edges="205233411 205233404#0 205233404#1 205233404#2 205233404#3 -165264989#4 165264989#4 219015146#7 219015146#8 219015146#9 219015146#10 219015146#11 219015146#12 219015146#14 219015146#15 219015146#16 219015146#17 219015146#19 219015146#20 219015146#21 219015146#22 219015146#23 219015146#24 219015146#25 219015146#26 78114495 78119061#1 78119061#2 -78114813#3 78103306 -78113091#0 -78119363#8 -78119363#5 -78119363#4 -78119363#3 -78119363#2"/>
    </vehicle>
    <vehicle id="Area Flow 1-724" type="Default" depart="169.00" color="46,234,132">
        <route edges="78105546#1 78105546#2 219015146#4 219015146#5 219015146#6 219015146#7 219015146#8 219015146#9 219015146#10 219015146#11 219015146#12 219015146#14 219015146#15 219015146#16 219015146#17 219015146#19 219015146#20 219015146#21 219015146#22 219015146#23 219015146#24 219015146#25 219015146#26 78114495 78119061#1 78119061#2 -78114813#3 78103306 -78113091#0 -78119363#8 -78119363#5"/>
    </vehicle>
    <vehicle id="Area Flow 1-180" type="Default" depart="171.00" color="46,234,132">
        <route edges="-78102637#0 78102637#0 78102637#1 -219015149#3 -219015149#2 -219015149#1 -219015149#0 219015146#4 219015146#5 219015146#6 219015146#7 219015146#8 219015146#9 219015146#10 219015146#11 219015146#12 219015146#14 219015146#15 219015146#16 219015146#17 219015146#19 219015146#20 219015146#21 219015146#22 219015146#23 219015146#24 219015146#25 219015146#26 219015146#27 219015146#28 219015146#29 219015146#30 219015146#31 219015146#32 219015146#33 219015146#34 219015146#35 78104246"/>
    </vehicle>
    <vehicle id="Area Flow 1-319" type="Default" depart="171.00" color="46,234,132">
        <route edges="78120448#3 78120448#4 78120448#5 -78104577#1 219015159#3 219015146#2 219015146#3 219015146#4 219015146#5 219015146#6 219015146#7 219015146#8 219015146#9 219015146#10 219015146#11 219015146#12 219015146#14 219015146#15 219015146#16 219015146#17 219015146#19 219015146#20 219015146#21 219015146#22 219015146#23 219015146#24 219015146#25 219015146#26 219015146#27 219015146#28 219015146#29 219015146#30 219015146#31 219015146#32 219015146#33 219015146#34 219015146#35 -78109741#0 78104894#0 78104894#1 78104894#2 78104894#3 -205233404#22 -205233404#21 -205233404#20"/>
    </vehicle>
    <vehicle id="Area Flow 1-231" type="Default" depart="174.00" color="46,234,132">
        <route edges="219015159#8 -219015159#8 -219015159#7 -219015159#6 219015146#2 219015146#3 219015146#4 219015146#5 219015146#6 219015146#7 219015146#8 219015146#9 219015146#10 219015146#11 219015146#12 219015146#14 219015146#15 219015146#16 219015146#17 219015146#19 219015146#20 219015146#21 219015146#22 219015146#23 219015146#24 219015146#25 219015146#26 219015146#27 219015146#28 175174060#2 -237181019 237181022#0 237181022#1 237181022#2 -78107174#2"/>
    </vehicle>
    <vehicle id="Area Flow 1-674" type="Default" depart="176.00" color="46,234,132">
        <route edges="-78113125 78114894#0 -78110384 -78106306 219015146#1 219015146#2 219015146#3 219015146#4 219015146#5 219015146#6 219015146#7 219015146#8 219015146#9 219015146#10 219015146#11 219015146#12 219015146#14 219015146#15 219015146#16 219015146#17 219015146#19 219015146#20 219015146#21 219015146#22 219015146#23 219015146#24 219015146#25 219015146#26 219015146#27 219015146#28 219015146#29 219015146#30 219015146#31 219015146#32 219015146#33 219015146#34 219015146#35 -78109741#0 78104894#0 78104894#1 217654218#0 217654232 217654234"/>
    </vehicle>
    <vehicle id="Area Flow 1-158" type="Default" depart="183.00" color="46,234,132">
        <route edges="-78105761#2 -219015149#0 219015146#4 219015146#5 219015146#6 219015146#7 219015146#8 219015146#9 219015146#10 219015146#11 219015146#12 219015146#14 219015146#15 219015146#16 219015146#17 219015146#19 219015146#20 219015146#21 219015146#22 219015146#23 219015146#24 219015146#25 219015146#26 78114495 78119061#1 78119061#2 -78114813#3 78103306 -78113091#0 78119363#9 -78105820#2 -78105820#1 78099492 -250585479 -175346557#1"/>
    </vehicle>
    <vehicle id="Area Flow 1-441" type="Default" depart="185.00" color="46,234,132">
        <route edges="78104577#0 219015159#3 219015146#2 219015146#3 219015146#4 219015146#5 219015146#6 219015146#7 219015146#8 219015146#9 219015146#10 219015146#11 219015146#12 219015146#14 219015146#15 219015146#16 219015146#17 219015146#19 219015146#20 219015146#21 219015146#22 219015146#23 219015146#24 219015146#25 219015146#26 219015146#27 219015146#28 175174060#2 -237181019 237181022#0 237181022#1 78100085#0 78100085#1"/>
    </vehicle>
    <vehicle id="Area Flow 1-677" type="Default" depart="188.00" color="46,234,132">
        <route edges="-78102758#1 78102758#1 78102758#2 78102758#3 241572210#1 -78116573#6 -78116573#5 -78116573#4 -78116573#3 -78116573#2 -78116573#1 -78116573#0 219015161#3 219015146#11 219015146#12 219015146#14 219015146#15 219015146#16 219015146#17 219015146#19 219015146#20 219015146#21 219015146#22 219015146#23 219015146#24 219015146#25 219015146#26 78114495 78119061#1 78119061#2 -78114813#3 78103306 -78113091#0 -78119363#8 78104894#5 78104894#6 78104894#7 78104894#8 78104894#9"/>
    </vehicle>
    <vehicle id="Area Flow 1-548" type="Default" depart="196.00" color="46,234,132">
        <route edges="-241572210#3 241572210#3 219015146#3 219015146#4 219015146#5 219015146#6 219015146#7 219015146#8 219015146#9 219015146#10 219015146#11 219015146#12 219015146#14 219015146#15 219015146#16 219015146#17 219015146#19 219015146#20 219015146#21 219015146#22 219015146#23 78105824#6 -78105824#6 205233404#15 205233404#16 205233404#17 205233404#18 205233404#19 205233404#20 205233404#21 205233404#22"/>
    </vehicle>
    <vehicle id="Area Flow 1-288" type="Default" depart="198.00" color="46,234,132">
        <route edges="78105309#2 -78104577#2 -78104577#1 219015159#3 219015146#2 219015146#3 219015146#4 219015146#5 219015146#6 219015146#7 219015146#8 219015146#9 219015146#10 219015146#11 219015146#12 219015146#14 219015146#15 219015146#16 219015146#17 219015146#19 219015146#20 219015146#21 219015146#22 219015146#23 219015146#24 219015146#25 219015146#26 78114495 78119061#1 78119061#2 -78114813#3 78103306 -78113091#0 78119363#9 -78105820#2 -78105820#1 78099492 -78102738#0"/>
    </vehicle>
    <vehicle id="Area Flow 1-18" type="Default" depart="206.00" color="46,234,132">
        <route edges="78112876#2 -78112876#2 -78112876#1 -78112876#0 -219015161#6 219015146#11 219015146#12 219015146#14 219015146#15 219015146#16 219015146#17 219015146#19 219015146#20 219015146#21 219015146#22 219015146#23 219015146#24 219015146#25 219015146#26 78114495 78119061#1 78119061#2 -78114813#3 78103306 -78113091#0 -78119363#8 78104894#5 78104894#6 78104894#7 78104894#8 78104894#9"/>
    </vehicle>
    <vehicle id="Area Flow 1-398" type="Default" depart="206.00" color="46,234,132">
        <route edges="78105309#4 -78110188#0 78120448#4 78120448#5 -78104577#1 219015159#3 219015146#2 219015146#3 219015146#4 219015146#5 219015146#6 219015146#7 219015146#8 219015146#9 219015146#10 219015146#11 219015146#12 219015146#14 219015146#15 219015146#16 219015146#17 219015146#19 219015146#20 219015146#21 219015146#22 219015146#23 219015146#24 219015146#25 219015146#26 219015146#27 219015146#28 219015146#29 219015146#30 219015146#31 219015146#32 219015146#33 219015146#34 219015146#35 -78109741#0 -78120102"/>
    </vehicle>
    <vehicle id="Area Flow 1-145" type="Default" depart="208.00" color="46,234,132">
        <route edges="-78116435#1 -78110871#2 -78110871#1 -78110871#0 -78120431 219015146#6 219015146#7 219015146#8 219015146#9 219015146#10 219015146#11 219015146#12 219015146#14 219015146#15 219015146#16 219015146#17 219015146#19 219015146#20 219015146#21 219015146#22 219015146#23 219015146#24 219015146#25 219015146#26 78114495 78119061#1 78119061#2 -78114813#3 78103306 -78113091#0 78119363#9 -78105820#2 -78105820#1 78099492 -250585479"/>
    </vehicle>
    <vehicle id="Area Flow 1-776" type="Default" depart="214.00" color="46,234,132">
        <route edges="-205233642#5 78102637#0 78102637#1 -219015149#3 -219015149#2 -219015149#1 -219015149#0 219015146#4 219015146#5 219015146#6 219015146#7 219015146#8 219015146#9 219015146#10 219015146#11 219015146#12 219015146#14 219015146#15 219015146#16 219015146#17 219015146#19 219015146#20 219015146#21 219015146#22 219015146#23 219015146#24 219015146#25 219015146#26 78114495 78119061#1 78119061#2 78114813#4 78114813#5 78103595#0"/>
    </vehicle>
    <vehicle id="Area Flow 1-295" type="Default" depart="217.00" color="46,234,132">
        <route edges="78116573#5 -78116573#5 -78116573#4 -78116573#3 -78116573#2 -78116573#1 -78116573#0 219015161#3 219015146#11 219015146#12 219015146#14 219015146#15 219015146#16 219015146#17 219015146#19 219015146#20 219015146#21 219015146#22 219015146#23 219015146#24 219015146#25 219015146#26 219015146#27 219015146#28 175174060#2 -237181019 237181022#0 237181022#1 237181022#2 -78107174#2"/>
    </vehicle>
    <vehicle id="Area Flow 1-499" type="Default" depart="217.00" color="46,234,132">
        <route edges="-78106306 219015146#1 219015146#2 219015146#3 219015146#4 219015146#5 219015146#6 219015146#7 219015146#8 219015146#9 219015146#10 219015146#11 219015146#12 219015146#14 219015146#15 219015146#16 219015146#17 219015146#19 219015146#20 219015146#21 219015146#22 219015146#23 219015146#24 219015146#25 219015146#26 78114495 78119061#1 78119061#2 -78114813#3 78103306 -78113091#0 -78119363#8 -78119363#5 -78119363#4 -78119363#3 -78119363#2 -78119363#1"/>
    </vehicle>
    <vehicle id="Area Flow 1-349" type="Default" depart="224.00" color="46,234,132">
        <route edges="-78120448#0 78120448#0 78102758#2 78102758#3 241572210#1 -78116573#6 -78116573#5 -78116573#4 -78116573#3 -78116573#2 -78116573#1 -78116573#0 219015161#3 219015146#11 219015146#12 219015146#14 219015146#15 219015146#16 219015146#17 219015146#19 219015146#20 219015146#21 219015146#22 219015146#23 219015146#24 219015146#25 219015146#26 219015146#27 219015146#28 175174060#2 -237181019"/>
    </vehicle>
    <vehicle id="Area Flow 1-970" type="Default" depart="225.00" color="46,234,132">
        <route edges="205233879 205233411 205233404#0 205233404#1 205233404#2 205233404#3 -165264989#4 165264989#4 219015146#7 219015146#8 219015146#9 219015146#10 219015146#11 219015146#12 219015146#14 219015146#15 219015146#16 219015146#17 219015146#19 219015146#20 219015146#21 219015146#22 219015146#23 219015146#24 219015146#25 219015146#26 219015146#27 219015146#28 219015146#29 219015146#30 219015146#31"/>
    </vehicle>
    <vehicle id="Area Flow 1-83" type="Default" depart="228.00" color="46,234,132">
        <route edges="78120448#1 -78120448#1 78102758#2 78102758#3 241572210#1 -78116573#6 -78116573#5 -78116573#4 -78116573#3 -78116573#2 -78116573#1 -78116573#0 219015161#3 219015146#11 219015146#12 219015146#14 219015146#15 219015146#16 219015146#17 219015146#19 219015146#20 219015146#21 219015146#22 219015146#23 219015146#24 219015146#25 219015146#26 219015146#27 219015146#28 175174060#2 -237181019 237181022#0 237181022#1 78100085#0 -78107174#3"/>
    </vehicle>
    <vehicle id="Area Flow 1-752" type="Default" depart="233.00" color="46,234,132">
        <route edges="-78110188#1 -78110188#0 78120448#4 78120448#5 -78104577#1 219015159#3 219015146#2 219015146#3 219015146#4 219015146#5 219015146#6 219015146#7 219015146#8 219015146#9 219015146#10 219015146#11 219015146#12 219015146#14 219015146#15 219015146#16 219015146#17 219015146#19 219015146#20 219015146#21 219015146#22 219015146#23 219015146#24 219015146#25 219015146#26 219015146#27 219015146#28 219015146#29 219015146#30 219015146#31 219015146#32 219015146#33 219015146#34 219015146#35 78104246"/>
    </vehicle>
    <vehicle id="Area Flow 1-902" type="Default" depart="233.00" color="46,234,132">
        <route edges="78104894#47 -78100805#1 -78118232 78105546#2 219015146#4 219015146#5 219015146#6 219015146#7 219015146#8 219015146#9 219015146#10 219015146#11 219015146#12 219015146#14 219015146#15 219015146#16 219015146#17 219015146#19 219015146#20 219015146#21 219015146#22 219015146#23 219015146#24 219015146#25 219015146#26 78114495 78119061#1 78119061#2 -78114813#3 78103306 -78113091#0 -78119363#8 -78119363#5 -78119363#4 -78119363#3 78119363#3"/>
    </vehicle>
    <vehicle id="Area Flow 1-307" type="Default" depart="235.00" color="46,234,132">
        <route edges="78105309#6 78105309#7 78102758#1 78102758#2 78102758#3 241572210#1 -78116573#6 -78116573#5 -78116573#4 -78116573#3 -78116573#2 -78116573#1 -78116573#0 219015161#3 219015146#11 219015146#12 219015146#14 219015146#15 219015146#16 219015146#17 219015146#19 219015146#20 219015146#21 219015146#22 219015146#23 219015146#24 219015146#25 219015146#26 219015146#27 219015146#28 219015146#29 219015146#30 219015146#31"/>
    </vehicle>
    <vehicle id="Area Flow 1-691" type="Default" depart="236.00" color="46,234,132">
        <route edges="-219015159#8 -219015159#7 -219015159#6 219015146#2 219015146#3 219015146#4 219015146#5 219015146#6 219015146#7 219015146#8 219015146#9 219015146#10 219015146#11 219015146#12 219015146#14 219015146#15 219015146#16 219015146#17 219015146#19 219015146#20 219015146#21 219015146#22 219015146#23 219015146#24 219015146#25 219015146#26 219015146#27 219015146#28 175174060#2 -237181019 237181022#0 237181022#1 237181022#2 -78107174#2 -78107174#1"/>