<?xml version="1.0" encoding="UTF-8"?>

<!-- generated on 01/31/15 18:52:51 by SUMO duarouter Version 0.22.0
<?xml version="1.0" encoding="UTF-8"?>

<configuration xmlns:xsi="http://www.w3.org/2001/XMLSchema-instance" xsi:noNamespaceSchemaLocation="http://sumo.dlr.de/xsd/duarouterConfiguration.xsd">

    <input>
        <net-file value="sim.net.xml"/>
        <trip-files value="sim.generated-trips.xml"/>
    </input>

    <output>
        <output-file value="sim.rou.xml"/>
    </output>

    <processing>
        <ignore-errors value="true"/>
    </processing>

</configuration>
-->

<routes xmlns:xsi="http://www.w3.org/2001/XMLSchema-instance" >
    <vType id="Default" length="5.00" maxSpeed="70.00">
        <carFollowing-Krauss accel="2.60" decel="4.50" sigma="0.50"/>
    </vType>
    <vehicle id="Ariel vuelta-49" type="Default" depart="1.00" color="153,153,0">
        <route edges="78099631#4 -78099631#4 -78099631#3 -219015161#8 -219015161#7 -219015161#6 -219015161#3 -219015161#2 -219015161#1 78107731#0 -78113382"/>
    </vehicle>
    <vehicle id="Ariel vuelta-58" type="Default" depart="2.00" color="153,153,0">
        <route edges="-78103531#0 78103531#0 78103531#1 -78112876#0 -219015161#6 219015146#11 219015146#12 78117297#10 78117297#11 78117297#12 -78109476#1 -78109476#0"/>
    </vehicle>
    <vehicle id="Garzon vuelta-335" type="Default" depart="4.00" color="255,204,255">
        <route edges="78104894#0 78104894#2 78104894#3 78104894#4 78104894#5 78104894#6 78104894#7 78104894#8 78104894#9 78104894#10 78104894#11 78104894#12 78104894#13 78104894#14 78104894#15 78104894#16 78104894#17 78104894#18 78104894#19 78104894#20 78104894#21 78104894#22 78104894#23 78104894#24 78104894#25 78104894#26 78104894#27 78104894#28 78104894#29 78104894#30 78104894#31 78104894#33 78104894#34 78104894#35 78104894#36 78104894#37 78104894#39 78104894#40 78104894#41 78104894#42 78104894#43 78104894#44 78104894#45 78104894#46 78104894#47 78104894#48 78104894#49"/>
    </vehicle>
    <vehicle id="Propios ida-180" type="Default" depart="6.00" color="red">
        <route edges="-78107195 176376526#3 176376526#4 176376526#5 176376723#2 176376723#3 176376723#4 176376723#5 176376723#6 164103645#2 -78114146#4 -78114146#3 -78114146#2 -78114146#1 -78114146#0 164112299 164112301#4 164112302#0"/>
    </vehicle>
    <vehicle id="Garzon vuelta-282" type="Default" depart="10.00" color="255,204,255">
        <route edges="219015146#34 78109741#1 -78109741#1 78104894#0 78104894#2 78104894#3 78104894#4 78104894#5 78104894#6 78104894#7 78104894#8 78104894#9 78104894#10 78104894#11 78104894#12 78104894#13 78104894#14 78104894#15 78104894#16 78104894#17 78104894#18 78104894#19 78104894#20 78104894#21 78104894#22 78104894#23 78104894#24 78104894#25 78104894#26 78104894#27 78104894#28 78104894#29 78104894#30 78104894#31 78104894#33 78104894#34 78104894#35 78104894#36 78104894#37 78104894#39 78104894#40 78104894#41 78104894#42 78104894#43 78104894#44 78104894#45 219015149#0 219015149#1 219015149#2 219015149#3 -78102637#1 78108092 205233642#3 78110057#0 78110057#1 78110057#2 217654229 78115304#1 78115304#2 78115304#3 205233879 205233411 205233404#0"/>
    </vehicle>
    <vehicle id="Saravia ida-40" type="Default" depart="11.00" color="204,255,255">
        <route edges="165264989#0 165264989#1 165264989#2 165264989#3 165264989#4 219015147#0 219015147#1 219015147#2 219015147#3 219015147#4 78112876#4 78106794"/>
    </vehicle>
    <vehicle id="Ariel ida-64" type="Default" depart="15.00" color="153,153,0">
        <route edges="78113382 -78107731#0 219015161#1 219015161#2 219015161#3 219015161#6 78112876#0 -78103531#1 -78103531#0 78103531#0"/>
    </vehicle>
    <vehicle id="Colman vuelta-18" type="Default" depart="17.00" color="0,204,204">
        <route edges="78117631 -78117631 205233422#7 -175346557#2 -175346557#1 -175346557#0 -78109741#1 -78120102 -78115663 -217654234"/>
    </vehicle>
    <vehicle id="lanus ida-149" type="Default" depart="19.00" color="green">
        <route edges="78119278#2 78110457 -78111251#5 78118235#1 78118235#2 78114495 -78119061#0 -78110502#0 -78103708#1 78120124#0"/>
    </vehicle>
    <vehicle id="Propios ida-82" type="Default" depart="20.00" color="red">
        <route edges="-78116811#6 78116811#6 176376723#1 176376723#2 176376723#3 176376723#4 176376723#5 176376723#6 164103645#2 -78114146#4 -78114146#3 -78114146#2 -78114146#1"/>
    </vehicle>
    <vehicle id="Propios ida-141" type="Default" depart="21.00" color="red">
        <route edges="78118492#0 78116811#6 176376723#1 176376723#2 176376723#3 176376723#4 176376723#5 176376723#6 164103645#2 -78114146#4 -78114146#3 -78114146#2 -78114146#1 -78114146#0 164112299 164112301#4 164112301#5 164112301#6"/>
    </vehicle>
    <vehicle id="lanus ida-23" type="Default" depart="24.00" color="green">
        <route edges="-237181022#0 -78111251#5 78118235#1 78118235#2 78114495 -78119061#0 -78110502#0 -78103708#1 78120124#0"/>
    </vehicle>
    <vehicle id="Propios ida-111" type="Default" depart="25.00" color="red">
        <route edges="78118492#0 78116811#6 176376723#1 176376723#2 176376723#3 176376723#4 176376723#5 176376723#6 164103645#2 -78114146#4 -78114146#3 -78114146#2 -78114146#1 78114146#1"/>
    </vehicle>
    <vehicle id="Garzon Ida-100" type="Default" depart="26.00" color="255,204,255">
        <route edges="205233404#0 205233404#1 205233404#2 205233404#3 -165264989#4 165264989#4 219015146#7 219015146#8 219015146#9 219015146#10 219015146#11 219015146#12 219015146#14 219015146#15 219015146#16 219015146#17 219015146#19 219015146#20 219015146#21 219015146#22 219015146#23 219015146#24 219015146#25 219015146#26 219015146#27 219015146#28 219015146#29 219015146#30 219015146#31 219015146#32 219015146#33"/>
    </vehicle>
    <vehicle id="Propios ida-203" type="Default" depart="27.00" color="red">
        <route edges="78120381#2 -78120381#2 -78120381#1 -260980918#1 -260980918#0 176376723#2 176376723#3 176376723#4 176376723#5 176376723#6 164103645#2 -78114146#4 -78114146#3 -78114146#2 -78114146#1 -78114146#0 164112299 164112301#4 164112301#5 164112301#6 164112301#1 164112301#2 164112301#3"/>
    </vehicle>
    <vehicle id="Propios vuelta-148" type="Default" depart="28.00" color="red">
        <route edges="-78118899#2 78106571#1 78106571#2 78118491 78104488#2 78104488#3 78104488#4 78104488#5 78104488#6 78104488#7 78104488#8 78104894#27 78104894#28 78104894#29 78104894#30 78104894#31 164088677#0 164088677#1 164088677#2 -260980918#0 -176376526#5 78103006#1 -78103006#1"/>
    </vehicle>
    <vehicle id="lanus ida-87" type="Default" depart="32.00" color="green">
        <route edges="-237181019 237181022#0 237181022#1 237181022#2 237181022#3 237181022#4 78119363#5 78119363#8 78119363#9 -179076035#2 -78103595#0 78114813#6 78114813#7"/>
    </vehicle>
    <vehicle id="Propios vuelta-107" type="Default" depart="34.00" color="red">
        <route edges="164112301#6 164112301#1 164112301#2 164112298 78114146#0 78114146#1 78114146#2 78114146#3 78114146#4 164103646#0 164088677#0 164088677#1 164088677#2 164088677#3 164088677#4 164088677#5 78117418 176376723#1"/>
    </vehicle>
    <vehicle id="Colman vuelta-37" type="Default" depart="36.00" color="0,204,204">
        <route edges="-205233422#8 -175346557#2 -175346557#1 -175346557#0 -78109741#1 78104894#0 217654218#1 -237181022#4 -237181022#3 -78107174#2 -78107174#1 -78107174#0"/>
    </vehicle>
    <vehicle id="lanus vuelta-127" type="Default" depart="36.00" color="0,255,51">
        <route edges="-78108233#1 -78108233#0 78110502#0 78110502#1 219015146#26 219015146#27 219015146#28 175174060#2 -237181019 -78110457 -78119278#2 78119278#2"/>
    </vehicle>
    <vehicle id="Propios vuelta-21" type="Default" depart="43.00" color="red">
        <route edges="-78114146#1 78114146#1 78114146#2 78114146#3 78114146#4 164103646#0 164088677#0 164088677#1 164088677#2 164088677#3 164088677#4 164088677#5 78117418 -78116811#6 -78116811#5 78116811#5"/>
    </vehicle>
    <vehicle id="Colman vuelta-4" type="Default" depart="44.00" color="0,204,204">
        <route edges="78105718#1 -78105718#1 -78105718#0 -78105820#1 -78105820#0 -175346557#0 -78109741#1 78104894#0 217654232 217654234"/>
    </vehicle>
    <vehicle id="lanus ida-68" type="Default" depart="44.00" color="green">
        <route edges="78100085#0 -78107174#3 237181022#3 237181022#4 78119363#5 78119363#8 78119363#9 -179076035#2 -179076035#1 -205233422#4 -78114813#7"/>
    </vehicle>
    <vehicle id="Garzon vuelta-316" type="Default" depart="48.00" color="255,204,255">
        <route edges="78104894#0 78104894#2 78104894#3 78104894#4 78104894#5 78104894#6 78104894#7 78104894#8 78104894#9 78104894#10 78104894#11 78104894#12 78104894#13 78104894#14 78104894#15 78104894#16 78104894#17 78104894#18 78104894#19 78104894#20 78104894#21 78104894#22 78104894#23 78104894#24 78104894#25 78104894#26 78104894#27 78104894#28 78104894#29 78104894#30 78104894#31 78104894#33 78104894#34 78104894#35 78104894#36 78104894#37 78104894#39 78104894#40 78104894#41 78104894#42 78104894#43 78104894#44 78104894#45 78104894#46 78104894#47 78104894#48 -219015159#3 78104577#1 78120448#6 78120448#7 -78120448#7"/>
    </vehicle>
    <vehicle id="Propios ida-57" type="Default" depart="49.00" color="red">
        <route edges="78116811#7 -78103006#1 176376526#5 176376723#2 176376723#3 176376723#4 176376723#5 176376723#6 219015146#19 -78104488#8 -78104488#7 -78104488#6 -78104488#5 -78104488#4 -78104488#3 -78104488#2 -78118491 -78106571#2 -78106571#1 -78106571#0 -78105305#1 164112300#1"/>
    </vehicle>
    <vehicle id="Saravia ida-6" type="Default" depart="52.00" color="204,255,255">
        <route edges="165264989#0 165264989#1 165264989#2 165264989#3 165264989#4 219015147#0 219015147#1 219015147#2 78105761#0"/>
    </vehicle>
    <vehicle id="lanus ida-34" type="Default" depart="53.00" color="green">
        <route edges="-78119278#2 78117748#0 237181022#1 237181022#2 237181022#3 237181022#4 78119363#5 78119363#8 78119363#9 -179076035#2 -179076035#1 -205233422#4 -78114813#7"/>
    </vehicle>
    <vehicle id="lanus ida-123" type="Default" depart="57.00" color="green">
        <route edges="78117748#0 78117748#1 78104894#8 -205233404#19 -205233404#18 -205233404#17 78114495 -78119061#0 -78110502#0 78108233#0 78108233#1 -78108141#3"/>
    </vehicle>
    <vehicle id="Ariel ida-3" type="Default" depart="59.00" color="153,153,0">
        <route edges="-78107731#0 219015161#1 219015161#2 219015161#3 219015161#6 78112876#0 -78103531#1 -78103531#0"/>
    </vehicle>
    <vehicle id="Saravia vuelta-24" type="Default" depart="61.00" color="204,255,255">
        <route edges="78105761#0 -78110871#1 -78110871#0 78107951#1 -219015147#0 -165264989#4 -165264989#3 -165264989#2 -165264989#1"/>
    </vehicle>
    <vehicle id="Ariel vuelta-116" type="Default" depart="62.00" color="153,153,0">
        <route edges="78114471 -78099631#3 -219015161#8 -219015161#7 -219015161#6 -219015161#3 -219015161#2 -219015161#1 78107731#0 78107731#1 -78107731#1"/>
    </vehicle>
    <vehicle id="Garzon Ida-86" type="Default" depart="63.00" color="255,204,255">
        <route edges="219015146#1 219015146#2 219015146#3 219015146#4 219015146#5 219015146#6 219015146#7 219015146#8 219015146#9 219015146#10 219015146#11 219015146#12 219015146#14 219015146#15 219015146#16 219015146#17 219015146#19 219015146#20 219015146#21 219015146#22 219015146#23 219015146#24 219015146#25 219015146#26 219015146#27 219015146#28 219015146#29 219015146#30 219015146#31 219015146#32 219015146#33"/>
    </vehicle>
    <vehicle id="Garzon vuelta-271" type="Default" depart="64.00" color="255,204,255">
        <route edges="78104894#0 78104894#2 78104894#3 78104894#4 78104894#5 78104894#6 78104894#7 78104894#8 78104894#9 78104894#10 78104894#11 78104894#12 78104894#13 78104894#14 78104894#15 78104894#16 78104894#17 78104894#18 78104894#19 78104894#20 78104894#21 78104894#22 78104894#23 78104894#24 78104894#25 78104894#26 78104894#27 78104894#28 78104894#29 78104894#30 78104894#31 78104894#33 78104894#34 78104894#35 78104894#36 78104894#37 78104894#39 78104894#40 78104894#41 78104894#42 78104894#43 78104894#44 78104894#45 78104894#46 78104894#47 78104894#48 -219015159#3 78104577#1 78120448#6 78120448#7 -78120448#7"/>
    </vehicle>
    <vehicle id="lanus vuelta-58" type="Default" depart="65.00" color="0,255,51">
        <route edges="-78108233#1 -78108233#0 78110502#0 78110502#1 219015146#26 219015146#27 219015146#28 175174060#2 -237181019 -78110457 78119278#3"/>
    </vehicle>
    <vehicle id="Garzon vuelta-308" type="Default" depart="67.00" color="255,204,255">
        <route edges="219015146#34 78109741#1 -78109741#1 78104894#0 78104894#2 78104894#3 78104894#4 78104894#5 78104894#6 78104894#7 78104894#8 78104894#9 78104894#10 78104894#11 78104894#12 78104894#13 78104894#14 78104894#15 78104894#16 78104894#17 78104894#18 78104894#19 78104894#20 78104894#21 78104894#22 78104894#23 78104894#24 78104894#25 78104894#26 78104894#27 78104894#28 78104894#29 78104894#30 78104894#31 78104894#33 78104894#34 78104894#35 78104894#36 78104894#37 78104894#39 78104894#40 78104894#41 78104894#42 78104894#43 78104894#44 78104894#45 78104894#46 78104894#47 -205233404#1 -205233404#0"/>
    </vehicle>
    <vehicle id="Colman vuelta-11" type="Default" depart="69.00" color="0,204,204">
        <route edges="205233422#6 205233422#7 -175346557#2 -175346557#1 -175346557#0 -78109741#1 -78120102 -78115663 -217654234"/>
    </vehicle>
    <vehicle id="Ariel ida-28" type="Default" depart="70.00" color="153,153,0">
        <route edges="-219015161#0 78108804#0 78108804#1 78108804#2 78108804#3 78104894#39 78104894#40 219015161#6 219015161#7 219015161#8 78099631#3 78099631#4"/>
    </vehicle>
    <vehicle id="Saravia ida-5" type="Default" depart="70.00" color="204,255,255">
        <route edges="165264989#1 165264989#2 165264989#3 165264989#4 219015147#0 219015147#1 219015147#2 219015147#3 -78116435#1 -78116435#0"/>
    </vehicle>
    <vehicle id="Garzon Ida-227" type="Default" depart="71.00" color="255,204,255">
        <route edges="205233404#0 205233404#1 205233404#2 205233404#3 -165264989#4 165264989#4 219015146#7 219015146#8 219015146#9 219015146#10 219015146#11 219015146#12 219015146#14 219015146#15 219015146#16 219015146#17 219015146#19 219015146#20 219015146#21 219015146#22 219015146#23 219015146#24 219015146#25 219015146#26 219015146#27 219015146#28 219015146#29 219015146#30 219015146#31 219015146#32 219015146#33"/>
    </vehicle>
    <vehicle id="Propios ida-125" type="Default" depart="71.00" color="red">
        <route edges="-78116811#8 -78103006#1 176376526#5 176376723#2 176376723#3 176376723#4 176376723#5 176376723#6 164103645#2 -78114146#4 -78114146#3 -78114146#2 -78114146#1 78118899#0 -78106343#0 78106343#0"/>
    </vehicle>
    <vehicle id="Propios vuelta-175" type="Default" depart="74.00" color="red">
        <route edges="78111878#1 78114499#0 78114146#2 78114146#3 78114146#4 164103646#0 164088677#0 164088677#1 164088677#2 -260980918#0 -176376526#5 -176376526#4 -176376526#3"/>
    </vehicle>
    <vehicle id="lanus ida-80" type="Default" depart="74.00" color="green">
        <route edges="237181019 175174062#0 175174061#2 78118235#2 78114495 -78119061#0 -78110502#0 78108233#0 78109168"/>
    </vehicle>
    <vehicle id="Garzon Ida-282" type="Default" depart="75.00" color="255,204,255">
        <route edges="205233404#0 205233404#1 205233404#2 205233404#3 -165264989#4 165264989#4 219015146#7 219015146#8 219015146#9 219015146#10 219015146#11 219015146#12 219015146#14 219015146#15 219015146#16 219015146#17 219015146#19 219015146#20 219015146#21 219015146#22 219015146#23 219015146#24 219015146#25 219015146#26 219015146#27 219015146#28 219015146#29 219015146#30 219015146#31 219015146#32 219015146#33 219015146#34 78109741#1 -78109741#1 78104894#0 78104894#2"/>
    </vehicle>
    <vehicle id="Garzon vuelta-33" type="Default" depart="75.00" color="255,204,255">
        <route edges="219015146#34 78109741#1 -78109741#1 78104894#0 78104894#2 78104894#3 78104894#4 78104894#5 78104894#6 78104894#7 78104894#8 78104894#9 78104894#10 78104894#11 78104894#12 78104894#13 78104894#14 78104894#15 78104894#16 78104894#17 78104894#18 78104894#19 78104894#20 78104894#21 78104894#22 78104894#23 78104894#24 78104894#25 78104894#26 78104894#27 78104894#28 78104894#29 78104894#30 78104894#31 78104894#33 78104894#34 78104894#35 78104894#36 78104894#37 78104894#39 78104894#40 78104894#41 78104894#42 78104894#43 78104894#44 78104894#45 219015149#0 219015149#1 219015149#2 219015149#3 -78102637#1 78108092 205233642#3 78110057#0 78110057#1 78110057#2 217654229 78115304#1 78115304#2 78115304#3 205233879 205233411 205233404#0"/>
    </vehicle>
    <vehicle id="Propios ida-245" type="Default" depart="75.00" color="red">
        <route edges="-78116811#8 -78103006#1 176376526#5 176376723#2 176376723#3 176376723#4 176376723#5 176376723#6 164103645#2 -78114146#4 -78114146#3 -78114146#2 -78114146#1 -78114146#0 164112299"/>
    </vehicle>
    <vehicle id="Propios vuelta-145" type="Default" depart="77.00" color="red">
        <route edges="-78114146#0 78114146#0 78114146#1 78114146#2 78114146#3 78114146#4 164103646#0 164088677#0 164088677#1 164088677#2 -260980918#0 -176376526#5 -176376526#4 -176376526#3 78107195 78116811#9 -78116811#9"/>
    </vehicle>
    <vehicle id="lanus vuelta-113" type="Default" depart="77.00" color="0,255,51">
        <route edges="78120124#0 -78120124#0 78103708#1 78110502#0 78110502#1 219015146#26 219015146#27 219015146#28 175174060#2 -237181019 237181022#0 237181022#1 237181022#2 78107174#3"/>
    </vehicle>
    <vehicle id="Garzon Ida-215" type="Default" depart="79.00" color="255,204,255">
        <route edges="219015146#1 219015146#2 219015146#3 219015146#4 219015146#5 219015146#6 219015146#7 219015146#8 219015146#9 219015146#10 219015146#11 219015146#12 219015146#14 219015146#15 219015146#16 219015146#17 219015146#19 219015146#20 219015146#21 219015146#22 219015146#23 219015146#24 219015146#25 219015146#26 219015146#27 219015146#28 219015146#29 219015146#30 219015146#31 219015146#32 219015146#33 219015146#34 78109741#1 -78109741#1 78104894#0 78104894#2"/>
    </vehicle>
    <vehicle id="Garzon vuelta-355" type="Default" depart="81.00" color="255,204,255">
        <route edges="78104894#0 78104894#2 78104894#3 78104894#4 78104894#5 78104894#6 78104894#7 78104894#8 78104894#9 78104894#10 78104894#11 78104894#12 78104894#13 78104894#14 78104894#15 78104894#16 78104894#17 78104894#18 78104894#19 78104894#20 78104894#21 78104894#22 78104894#23 78104894#24 78104894#25 78104894#26 78104894#27 78104894#28 78104894#29 78104894#30 78104894#31 78104894#33 78104894#34 78104894#35 78104894#36 78104894#37 78104894#39 78104894#40 78104894#41 78104894#42 78104894#43 78104894#44 78104894#45 78104894#46 78104894#47 -205233404#1 -205233404#0"/>
    </vehicle>
    <vehicle id="Propios vuelta-131" type="Default" depart="82.00" color="red">
        <route edges="78118899#2 78104488#1 78104488#2 78104488#3 78104488#4 78104488#5 78104488#6 78104488#7 78104488#8 78104894#27 78104894#28 78104894#29 78104894#30 78104894#31 -205233404#9 78111878#7 78111878#8 78111878#9 78111878#10 78111878#11 -78111878#11"/>
    </vehicle>
    <vehicle id="Garzon vuelta-51" type="Default" depart="84.00" color="255,204,255">
        <route edges="78104894#0 78104894#2 78104894#3 78104894#4 78104894#5 78104894#6 78104894#7 78104894#8 78104894#9 78104894#10 78104894#11 78104894#12 78104894#13 78104894#14 78104894#15 78104894#16 78104894#17 78104894#18 78104894#19 78104894#20 78104894#21 78104894#22 78104894#23 78104894#24 78104894#25 78104894#26 78104894#27 78104894#28 78104894#29 78104894#30 78104894#31 78104894#33 78104894#34 78104894#35 78104894#36 78104894#37 78104894#39 78104894#40 78104894#41 78104894#42 78104894#43 78104894#44 78104894#45 219015149#0 219015149#1 219015149#2 219015149#3 -78102637#1 78108092 205233642#3 78110057#0 78110057#1 78110057#2 217654229 78115304#1 78115304#2 78115304#3 205233879 205233411 205233404#0"/>
    </vehicle>
    <vehicle id="Ariel ida-155" type="Default" depart="87.00" color="153,153,0">
        <route edges="-78109476#0 219015161#1 219015161#2 219015161#3 219015161#6 219015161#7 219015161#8 78099631#3 78099631#4"/>
    </vehicle>
    <vehicle id="Propios ida-18" type="Default" depart="88.00" color="red">
        <route edges="-78107195 176376526#3 176376526#4 176376526#5 176376723#2 176376723#3 176376723#4 176376723#5 176376723#6 219015146#19 -78104488#8 -78104488#7 -78104488#6 -78104488#5 -78104488#4 -78104488#3 -78104488#2 -78118491 -78106571#2 -78118373#0"/>
    </vehicle>
    <vehicle id="Propios vuelta-212" type="Default" depart="89.00" color="red">
        <route edges="164112301#6 164112301#1 164112301#2 164112298 78114146#0 78114146#1 78114146#2 78114146#3 78114146#4 164103646#0 164088677#0 164088677#1 164088677#2 260980918#1 -260980918#1"/>
    </vehicle>
    <vehicle id="Garzon Ida-0" type="Default" depart="92.00" color="255,204,255">
        <route edges="205233404#0 205233404#1 205233404#2 205233404#3 -165264989#4 165264989#4 219015146#7 219015146#8 219015146#9 219015146#10 219015146#11 219015146#12 219015146#14 219015146#15 219015146#16 219015146#17 219015146#19 219015146#20 219015146#21 219015146#22 219015146#23 219015146#24 219015146#25 219015146#26 219015146#27 219015146#28 219015146#29 219015146#30 219015146#31 219015146#32 219015146#33"/>
    </vehicle>
    <vehicle id="Propios vuelta-53" type="Default" depart="93.00" color="red">
        <route edges="164112299 164112301#4 164112301#5 164112301#6 164112301#1 164112301#2 164112298 78114146#0 78114146#1 78114146#2 78114146#3 78114146#4 164103646#0 164088677#0 164088677#1 164088677#2 -260980918#0 -176376526#5 -176376526#4 -176376526#3 78107195 -78107195"/>
    </vehicle>
    <vehicle id="lanus vuelta-16" type="Default" depart="93.00" color="0,255,51">
        <route edges="-78120124#0 78103708#1 78110502#0 78110502#1 219015146#26 219015146#27 219015146#28 175174060#2 -237181019 237181022#0 -237181022#0"/>
    </vehicle>
    <vehicle id="Ariel vuelta-129" type="Default" depart="94.00" color="153,153,0">
        <route edges="-78099631#2 78103531#0 78103531#1 -78112876#0 -219015161#6 -219015161#3 -219015161#2 -219015161#1 78107731#0 78107731#1 -78107731#1"/>
    </vehicle>
    <vehicle id="Colman ida-27" type="Default" depart="96.00" color="0,204,204">
        <route edges="-78107174#0 78119363#1 78119363#2 78119363#3 78119363#4 237181022#5 219015146#34 78109741#1 175346557#0 175346557#1 175346557#2 205233422#8"/>
    </vehicle>
    <vehicle id="Propios ida-288" type="Default" depart="97.00" color="red">
        <route edges="-176376526#5 176376526#5 176376723#2 176376723#3 176376723#4 176376723#5 176376723#6 164103645#2 -78114146#4 -78114146#3 -78114146#2 -78114146#1 -78114146#0 164112299 164112301#4 164112301#5 164112301#6 164112301#1 164112301#2 164112298"/>
    </vehicle>
    <vehicle id="lanus vuelta-146" type="Default" depart="97.00" color="0,255,51">
        <route edges="-78109168 -78108233#0 78110502#0 78110502#1 219015146#26 219015146#27 219015146#28 175174060#2 -237181019 237181022#0 237181022#1 78100085#0"/>
    </vehicle>
    <vehicle id="Ariel ida-24" type="Default" depart="98.00" color="153,153,0">
        <route edges="-78113382 78113382 -78107731#0 219015161#1 219015161#2 219015161#3 219015161#6 219015161#7 219015161#8 -219015161#8"/>
    </vehicle>
    <vehicle id="Garzon vuelta-152" type="Default" depart="98.00" color="255,204,255">
        <route edges="219015146#34 78109741#1 -78109741#1 78104894#0 78104894#2 78104894#3 78104894#4 78104894#5 78104894#6 78104894#7 78104894#8 78104894#9 78104894#10 78104894#11 78104894#12 78104894#13 78104894#14 78104894#15 78104894#16 78104894#17 78104894#18 78104894#19 78104894#20 78104894#21 78104894#22 78104894#23 78104894#24 78104894#25 78104894#26 78104894#27 78104894#28 78104894#29 78104894#30 78104894#31 78104894#33 78104894#34 78104894#35 78104894#36 78104894#37 78104894#39 78104894#40 78104894#41 78104894#42 78104894#43 78104894#44 78104894#45 78104894#46 78104894#47 78104894#48 78104894#49"/>
    </vehicle>
    <vehicle id="Ariel vuelta-35" type="Default" depart="102.00" color="153,153,0">
        <route edges="-78099631#2 78103531#0 78103531#1 -78112876#0 -219015161#6 -219015161#3 -219015161#2 -219015161#1 78107731#0"/>
    </vehicle>
    <vehicle id="Propios ida-164" type="Default" depart="102.00" color="red">
        <route edges="78115227#4 164088677#5 78117418 176376723#1 176376723#2 176376723#3 176376723#4 176376723#5 176376723#6 164103645#2 -78114146#4 -78114146#3 -78114146#2 -78114146#1 -78114146#0"/>
    </vehicle>
    <vehicle id="Garzon Ida-55" type="Default" depart="109.00" color="255,204,255">
        <route edges="205233404#0 205233404#1 205233404#2 205233404#3 -165264989#4 165264989#4 219015146#7 219015146#8 219015146#9 219015146#10 219015146#11 219015146#12 219015146#14 219015146#15 219015146#16 219015146#17 219015146#19 219015146#20 219015146#21 219015146#22 219015146#23 219015146#24 219015146#25 219015146#26 219015146#27 219015146#28 219015146#29 219015146#30 219015146#31 219015146#32 219015146#33"/>
    </vehicle>
    <vehicle id="Propios ida-176" type="Default" depart="109.00" color="red">
        <route edges="-78120381#3 -78120381#2 -78120381#1 -260980918#1 -260980918#0 176376723#2 176376723#3 176376723#4 176376723#5 176376723#6 164103645#2 -78114146#4 -78114146#3 -78114146#2 -78114146#1 -78114146#0 164112299 164112301#4 164112301#5 164112301#6 164112301#1 164112301#2 164112301#3"/>
    </vehicle>
    <vehicle id="lanus ida-57" type="Default" depart="111.00" color="green">
        <route edges="-237181022#0 -78111251#5 78118235#1 78118235#2 78114495 -78119061#0 -78110502#0 78108233#0"/>
    </vehicle>
    <vehicle id="Ariel vuelta-71" type="Default" depart="115.00" color="153,153,0">
        <route edges="-78107061 78107061 -78099631#4 -78099631#3 -219015161#8 -219015161#7 -219015161#6 -219015161#3 -219015161#2 -219015161#1 219015161#1"/>
    </vehicle>
    <vehicle id="lanus vuelta-136" type="Default" depart="115.00" color="0,255,51">
        <route edges="-78108233#0 78110502#0 78110502#1 219015146#26 219015146#27 219015146#28 175174060#2 -237181019 237181022#0 78117748#1"/>
    </vehicle>
    <vehicle id="lanus ida-30" type="Default" depart="116.00" color="green">
        <route edges="78110457 -78111251#5 78118235#1 78118235#2 78114495 -78119061#0 -78110502#0 -78103708#1 78120124#0"/>
    </vehicle>
    <vehicle id="Ariel vuelta-4" type="Default" depart="119.00" color="153,153,0">
        <route edges="219015161#8 -219015161#8 -219015161#7 -219015161#6 -219015161#3 -219015161#2 -219015161#1"/>
    </vehicle>
    <vehicle id="Garzon vuelta-143" type="Default" depart="123.00" color="255,204,255">
        <route edges="78104894#0 78104894#2 78104894#3 78104894#4 78104894#5 78104894#6 78104894#7 78104894#8 78104894#9 78104894#10 78104894#11 78104894#12 78104894#13 78104894#14 78104894#15 78104894#16 78104894#17 78104894#18 78104894#19 78104894#20 78104894#21 78104894#22 78104894#23 78104894#24 78104894#25 78104894#26 78104894#27 78104894#28 78104894#29 78104894#30 78104894#31 78104894#33 78104894#34 78104894#35 78104894#36 78104894#37 78104894#39 78104894#40 78104894#41 78104894#42 78104894#43 78104894#44 78104894#45 219015149#0 219015149#1 219015149#2 219015149#3 -78102637#1 78108092 205233642#3 78110057#0 78110057#1 78110057#2 217654229 78115304#1 78115304#2 78115304#3 205233879 205233411 205233404#0"/>
    </vehicle>
    <vehicle id="lanus vuelta-142" type="Default" depart="124.00" color="0,255,51">
        <route edges="78108233#0 -78108233#0 78110502#0 78110502#1 219015146#26 219015146#27 219015146#28 175174060#2 -237181019"/>
    </vehicle>
    <vehicle id="Garzon Ida-344" type="Default" depart="125.00" color="255,204,255">
        <route edges="205233404#0 205233404#1 205233404#2 205233404#3 -165264989#4 165264989#4 219015146#7 219015146#8 219015146#9 219015146#10 219015146#11 219015146#12 219015146#14 219015146#15 219015146#16 219015146#17 219015146#19 219015146#20 219015146#21 219015146#22 219015146#23 219015146#24 219015146#25 219015146#26 219015146#27 219015146#28 219015146#29 219015146#30 219015146#31 219015146#32 219015146#33"/>
    </vehicle>
    <vehicle id="lanus vuelta-51" type="Default" depart="125.00" color="0,255,51">
        <route edges="-78108233#1 -78108233#0 78110502#0 78110502#1 219015146#26 219015146#27 219015146#28 175174060#2 -237181019 237181022#0 -237181022#0 -78111251#5"/>
    </vehicle>
    <vehicle id="Ariel vuelta-156" type="Default" depart="126.00" color="153,153,0">
        <route edges="78099631#4 -78099631#4 -78099631#3 -219015161#8 -219015161#7 -219015161#6 -219015161#3 -219015161#2 -219015161#1 78107731#0"/>
    </vehicle>
    <vehicle id="Ariel vuelta-9" type="Default" depart="127.00" color="153,153,0">
        <route edges="78099631#4 -78099631#4 -78099631#3 -219015161#8 -219015161#7 -219015161#6 -219015161#3 -219015161#2 -219015161#1 -219015161#0"/>
    </vehicle>
    <vehicle id="Garzon vuelta-381" type="Default" depart="129.00" color="255,204,255">