<configuration>
<input-files>
<net-file>sim.net.xml</net-file>
<additional-files>sim.add.xml</additional-files>
</input-files>
<simulation>
<begin>0</begin>
<end>3660</end>
</simulation>
</configuration>
