<?xml version="1.0" encoding="UTF-8"?>

<!-- generated on 01/29/15 18:58:18 by SUMO duarouter Version 0.22.0
<?xml version="1.0" encoding="UTF-8"?>

<configuration xmlns:xsi="http://www.w3.org/2001/XMLSchema-instance" xsi:noNamespaceSchemaLocation="http://sumo.dlr.de/xsd/duarouterConfiguration.xsd">

    <input>
        <net-file value="sim.net.xml"/>
        <trip-files value="sim.generated-trips.xml"/>
    </input>

    <output>
        <output-file value="sim.rou.xml"/>
    </output>

    <processing>
        <ignore-errors value="true"/>
    </processing>

</configuration>
-->

<routes xmlns:xsi="http://www.w3.org/2001/XMLSchema-instance" xsi:noNamespaceSchemaLocation="http://sumo.dlr.de/xsd/routes_file.xsd">
    <vType id="Default" length="5.00" maxSpeed="70.00">
        <carFollowing-Krauss accel="2.60" decel="4.50" sigma="0.50"/>
    </vType>
    <vehicle id="Ariel ida-117" type="Default" depart="0.00" color="255,255,204">
        <route edges="78107731#0 -78107731#0 219015161#1 219015161#2 219015161#3 219015161#6 78112876#0 -78103531#1 -78103531#0"/>
    </vehicle>
    <vehicle id="Ariel vuelta-21" type="Default" depart="2.00" color="255,255,204">
        <route edges="219015161#1 219015161#2 219015161#3 219015161#6 219015161#7 219015161#8 78099631#3 -78114471 78114471"/>
    </vehicle>
    <vehicle id="Propios vuelta-35" type="Default" depart="3.00" color="red">
        <route edges="78114146#1 78114146#2 78114146#3 78114146#4 164103646#0 164088677#0 164088677#1 164088677#2 -260980918#0 -176376526#5 78103006#1 78116811#8"/>
    </vehicle>
    <vehicle id="Colman ida-142" type="Default" depart="6.00" color="yellow">
        <route edges="78119363#0 78119363#1 78119363#2 78119363#3 78119363#4 237181022#5 219015146#34 78109741#1 175346557#0 175346557#1 175346557#2 -205233422#7"/>
    </vehicle>
    <vehicle id="Ariel vuelta-32" type="Default" depart="7.00" color="255,255,204">
        <route edges="-78109476#0 219015161#1 219015161#2 219015161#3 219015161#6 219015161#7 219015161#8 78099631#3 78099631#4"/>
    </vehicle>
    <vehicle id="Colman vuelta-174" type="Default" depart="7.00" color="yellow">
        <route edges="-205233422#7 205233422#7 -175346557#2 -175346557#1 -175346557#0 -78109741#1 78104894#0 217654232 217654234"/>
    </vehicle>
    <vehicle id="Garzon vuelta-271" type="Default" depart="7.00" color="255,204,255">
        <route edges="78104894#0 78104894#2 78104894#3 78104894#4 78104894#5 78104894#6 78104894#7 78104894#8 78104894#9 78104894#10 78104894#11 78104894#12 78104894#13 78104894#14 78104894#15 78104894#16 78104894#17 78104894#18 78104894#19 78104894#20 78104894#21 78104894#22 78104894#23 78104894#24 78104894#25 78104894#26 78104894#27 78104894#28 78104894#29 78104894#30 78104894#31 78104894#33 78104894#34 78104894#35 78104894#36 78104894#37 78104894#39 78104894#40 78104894#41 78104894#42 78104894#43 78104894#44 78104894#45 78104894#46 78104894#47 78104894#48 78104894#49 78104894#50"/>
    </vehicle>
    <vehicle id="Colman ida-102" type="Default" depart="8.00" color="yellow">
        <route edges="78115663 78120102 78109741#1 175346557#0 175346557#1 175346557#2 -205233422#7 78117631 -78117631"/>
    </vehicle>
    <vehicle id="Garzon vuelta-341" type="Default" depart="9.00" color="255,204,255">
        <route edges="78104894#0 78104894#2 78104894#3 78104894#4 78104894#5 78104894#6 78104894#7 78104894#8 78104894#9 78104894#10 78104894#11 78104894#12 78104894#13 78104894#14 78104894#15 78104894#16 78104894#17 78104894#18 78104894#19 78104894#20 78104894#21 78104894#22 78104894#23 78104894#24 78104894#25 78104894#26 78104894#27 78104894#28 78104894#29 78104894#30 78104894#31 78104894#33 78104894#34 78104894#35 78104894#36 78104894#37 78104894#39 78104894#40 78104894#41 78104894#42 78104894#43 78104894#44 78104894#45 78104894#46 78104894#47 -205233404#1 -205233404#0"/>
    </vehicle>
    <vehicle id="Propios ida-355" type="Default" depart="10.00" color="255,0,51">
        <route edges="164112301#6 164112301#1 164112301#2 164112298 78114146#0 78114146#1 78114146#2 78114146#3 78114146#4 164103646#0 164088677#0 164088677#1 164088677#2 164088677#3 164088677#4 -78115227#4 78115227#4"/>
    </vehicle>
    <vehicle id="Colman ida-64" type="Default" depart="11.00" color="yellow">
        <route edges="-78119363#1 78119363#1 78119363#2 78119363#3 78119363#4 237181022#5 219015146#34 78109741#1 175346557#0 175346557#1 175346557#2 -175346557#2"/>
    </vehicle>
    <vehicle id="Propios ida-231" type="Default" depart="12.00" color="255,0,51">
        <route edges="164112302#1 78106571#0 78106571#1 78106571#2 78118491 78104488#2 78104488#3 78104488#4 78104488#5 78104488#6 78104488#7 78104488#8 78104894#27 78104894#28 78104894#29 78104894#30 78104894#31 164088677#0 164088677#1 164088677#2 -260980918#0 -176376526#5 78103006#1"/>
    </vehicle>
    <vehicle id="Saravia vuelta-14" type="Default" depart="12.00" color="204,255,255">
        <route edges="-78116435#0 -219015149#1 -219015149#0 -78105546#2 78113441#0 -78110912#1 78120022 -78116573#3 -165264989#2 -165264989#1 241572207"/>
    </vehicle>
    <vehicle id="Garzon vuelta-102" type="Default" depart="13.00" color="255,204,255">
        <route edges="219015146#34 78109741#1 -78109741#1 78104894#0 78104894#2 78104894#3 78104894#4 78104894#5 78104894#6 78104894#7 78104894#8 78104894#9 78104894#10 78104894#11 78104894#12 78104894#13 78104894#14 78104894#15 78104894#16 78104894#17 78104894#18 78104894#19 78104894#20 78104894#21 78104894#22 78104894#23 78104894#24 78104894#25 78104894#26 78104894#27 78104894#28 78104894#29 78104894#30 78104894#31 78104894#33 78104894#34 78104894#35 78104894#36 78104894#37 78104894#39 78104894#40 78104894#41 78104894#42 78104894#43 78104894#44 78104894#45 78104894#46 78104894#47 78104894#48 -219015159#3 78104577#1 78120448#6 78120448#7"/>
    </vehicle>
    <vehicle id="Saravia vuelta-37" type="Default" depart="13.00" color="204,255,255">
        <route edges="219015147#3 -219015147#3 -219015147#2 -219015147#1 -219015147#0 -165264989#4 -165264989#3 -165264989#2 -165264989#1 -165264989#0 165264989#0"/>
    </vehicle>
    <vehicle id="Garzon Ida-299" type="Default" depart="14.00" color="255,204,255">
        <route edges="-78103742#1 -78106306 219015146#1 219015146#2 219015146#3 219015146#4 219015146#5 219015146#6 219015146#7 219015146#8 219015146#9 219015146#10 219015146#11 219015146#12 219015146#14 219015146#15 219015146#16 219015146#17 219015146#19 219015146#20 219015146#21 219015146#22 219015146#23 219015146#24 219015146#25 219015146#26 219015146#27 219015146#28 219015146#29 219015146#30 219015146#31 219015146#32 219015146#33 219015146#34 78109741#1 -78109741#1 78104894#0 78104894#2"/>
    </vehicle>
    <vehicle id="Garzon vuelta-219" type="Default" depart="14.00" color="255,204,255">
        <route edges="78104894#0 78104894#2 78104894#3 78104894#4 78104894#5 78104894#6 78104894#7 78104894#8 78104894#9 78104894#10 78104894#11 78104894#12 78104894#13 78104894#14 78104894#15 78104894#16 78104894#17 78104894#18 78104894#19 78104894#20 78104894#21 78104894#22 78104894#23 78104894#24 78104894#25 78104894#26 78104894#27 78104894#28 78104894#29 78104894#30 78104894#31 78104894#33 78104894#34 78104894#35 78104894#36 78104894#37 78104894#39 78104894#40 78104894#41 78104894#42 78104894#43 78104894#44 78104894#45 78104894#46 78104894#47 -205233404#1 -205233404#0"/>
    </vehicle>
    <vehicle id="Colman ida-90" type="Default" depart="15.00" color="yellow">
        <route edges="-78120102 78120102 78109741#1 175346557#0 175346557#1 175346557#2 -205233422#7"/>
    </vehicle>
    <vehicle id="Propios ida-233" type="Default" depart="17.00" color="255,0,51">
        <route edges="-78106343#0 78106343#0 78106343#1 78106571#2 78118491 78104488#2 78104488#3 78104488#4 78104488#5 78104488#6 78104488#7 78104488#8 78104894#27 78104894#28 78104894#29 78104894#30 78104894#31 164088677#0 164088677#1 164088677#2 -260980918#0 -176376526#5"/>
    </vehicle>
    <vehicle id="Colman vuelta-128" type="Default" depart="19.00" color="yellow">
        <route edges="205233422#8 -205233422#8 -175346557#2 -175346557#1 -175346557#0 -78109741#1 -78120102 -78115663 78119363#0"/>
    </vehicle>
    <vehicle id="Garzon Ida-254" type="Default" depart="25.00" color="255,204,255">
        <route edges="-78103742#0 205233881 219015146#0 219015146#1 219015146#2 219015146#3 219015146#4 219015146#5 219015146#6 219015146#7 219015146#8 219015146#9 219015146#10 219015146#11 219015146#12 219015146#14 219015146#15 219015146#16 219015146#17 219015146#19 219015146#20 219015146#21 219015146#22 219015146#23 219015146#24 219015146#25 219015146#26 219015146#27 219015146#28 219015146#29 219015146#30 219015146#31 219015146#32 219015146#33 219015146#34 78109741#1 -78109741#1 78104894#0 78104894#2"/>
    </vehicle>
    <vehicle id="Propios vuelta-251" type="Default" depart="27.00" color="red">
        <route edges="-78105305#0 78105305#0 78105305#1 78106571#0 78106571#1 78106571#2 78118491 78104488#2 78104488#3 78104488#4 78104488#5 78104488#6 78104488#7 78104488#8 78104894#27 78104894#28 78104894#29 78104894#30 78104894#31 164088677#0 164088677#1 164088677#2 164088677#3 164088677#4"/>
    </vehicle>
    <vehicle id="Propios ida-151" type="Default" depart="28.00" color="255,0,51">
        <route edges="-78114146#1 78114146#1 78114146#2 78114146#3 78114146#4 164103646#0 164088677#0 164088677#1 164088677#2 164088677#3 164088677#4 -78115227#4 -78120381#2"/>
    </vehicle>
    <vehicle id="Propios vuelta-270" type="Default" depart="33.00" color="red">
        <route edges="164112300#0 78105305#1 78106571#0 78106571#1 78106571#2 78118491 78104488#2 78104488#3 78104488#4 78104488#5 78104488#6 78104488#7 78104488#8 78104894#27 78104894#28 78104894#29 78104894#30 78104894#31 164088677#0 164088677#1 164088677#2 164088677#3 -78109121#1 -78120381#1"/>
    </vehicle>
    <vehicle id="Ariel vuelta-122" type="Default" depart="34.00" color="255,255,204">
        <route edges="-219015161#1 219015161#1 219015161#2 219015161#3 219015161#6 219015161#7 219015161#8 -78099631#2"/>
    </vehicle>
    <vehicle id="Propios vuelta-10" type="Default" depart="34.00" color="red">
        <route edges="-78114146#1 78114146#1 78114146#2 78114146#3 78114146#4 164103646#0 164088677#0 164088677#1 164088677#2 164088677#3 164088677#4"/>
    </vehicle>
    <vehicle id="Colman vuelta-108" type="Default" depart="36.00" color="yellow">
        <route edges="205233422#6 205233422#7 -175346557#2 -175346557#1 -175346557#0 -78109741#1 78104894#0 217654232 217654234"/>
    </vehicle>
    <vehicle id="Ariel ida-131" type="Default" depart="38.00" color="255,255,204">
        <route edges="-219015161#1 219015161#1 219015161#2 219015161#3 219015161#6 219015161#7 219015161#8 78099631#3 -78114471 78114471"/>
    </vehicle>
    <vehicle id="lanus vuelta-1" type="Default" depart="38.00" color="0,255,51">
        <route edges="78108233#1 -78108233#1 -78108233#0 78110502#0 78110502#1 219015146#26 219015146#27 219015146#28 175174060#2 -237181019 -78110457"/>
    </vehicle>
    <vehicle id="Propios ida-408" type="Default" depart="39.00" color="255,0,51">
        <route edges="78114146#1 78114146#2 78114146#3 78114146#4 164103646#0 164088677#0 164088677#1 164088677#2 164088677#3 164088677#4 -78115227#4 78115227#4"/>
    </vehicle>
    <vehicle id="Colman ida-134" type="Default" depart="40.00" color="yellow">
        <route edges="217654234 78115663 78120102 78109741#1 175346557#0 78105820#0 78105820#1 78105718#0 78105718#1"/>
    </vehicle>
    <vehicle id="Propios vuelta-211" type="Default" depart="46.00" color="red">
        <route edges="164112301#5 164112301#6 164112301#1 164112301#2 164112298 78114146#0 78114146#1 78114146#2 78114146#3 78114146#4 164103646#0 164088677#0 164088677#1 164088677#2 164088677#3 164088677#4 164088677#5 78117418 -78116811#6 -78116811#5 -78116811#4 -78111878#12"/>
    </vehicle>
    <vehicle id="Ariel ida-199" type="Default" depart="49.00" color="255,255,204">
        <route edges="-219015161#1 219015161#1 219015161#2 219015161#3 219015161#6 219015161#7 219015161#8 78099631#3 78099631#4 -78107061"/>
    </vehicle>
    <vehicle id="Ariel ida-129" type="Default" depart="50.00" color="255,255,204">
        <route edges="-219015161#1 219015161#1 219015161#2 219015161#3 219015161#6 219015161#7 78116811#0 78108804#11 78108804#12 78108804#13 -78099631#5"/>
    </vehicle>
    <vehicle id="Ariel ida-80" type="Default" depart="51.00" color="255,255,204">
        <route edges="-219015161#0 78108804#0 78108804#1 78108804#2 78108804#3 78104894#39 78104894#40 219015161#6 219015161#7 219015161#8 -78099631#2"/>
    </vehicle>
    <vehicle id="Colman vuelta-86" type="Default" depart="51.00" color="yellow">
        <route edges="205233422#7 -175346557#2 -175346557#1 -175346557#0 -78109741#1 78104894#0 217654218#1 -78119363#4 -78119363#3 -78119363#2 -78119363#1"/>
    </vehicle>
    <vehicle id="Garzon Ida-10" type="Default" depart="53.00" color="255,204,255">
        <route edges="-78103742#1 -78106306 219015146#1 219015146#2 219015146#3 219015146#4 219015146#5 219015146#6 219015146#7 219015146#8 219015146#9 219015146#10 219015146#11 219015146#12 219015146#14 219015146#15 219015146#16 219015146#17 219015146#19 219015146#20 219015146#21 219015146#22 219015146#23 219015146#24 219015146#25 219015146#26 219015146#27 219015146#28 219015146#29 219015146#30 219015146#31 219015146#32 219015146#33"/>
    </vehicle>
    <vehicle id="Garzon vuelta-397" type="Default" depart="53.00" color="255,204,255">
        <route edges="219015146#34 78109741#1 -78109741#1 78104894#0 78104894#2 78104894#3 78104894#4 78104894#5 78104894#6 78104894#7 78104894#8 78104894#9 78104894#10 78104894#11 78104894#12 78104894#13 78104894#14 78104894#15 78104894#16 78104894#17 78104894#18 78104894#19 78104894#20 78104894#21 78104894#22 78104894#23 78104894#24 78104894#25 78104894#26 78104894#27 78104894#28 78104894#29 78104894#30 78104894#31 78104894#33 78104894#34 78104894#35 78104894#36 78104894#37 78104894#39 78104894#40 78104894#41 78104894#42 78104894#43 78104894#44 78104894#45 78104894#46 78104894#47 78104894#48 -219015159#3 78104577#1 78120448#6 78120448#7 -78120448#7"/>
    </vehicle>
    <vehicle id="Propios ida-129" type="Default" depart="54.00" color="255,0,51">
        <route edges="164112635#0 78111878#0 164121089#2 164112301#2 164112298 78114146#0 78114146#1 78114146#2 78114146#3 78114146#4 164103646#0 164088677#0 164088677#1 164088677#2 164088677#3 164088677#4 164088677#5 78117418 -78116811#6"/>
    </vehicle>
    <vehicle id="lanus ida-57" type="Default" depart="54.00" color="green">
        <route edges="-237181022#2 78100085#0 78100085#1 78104894#7 78104894#8 -205233404#19 -205233404#18 -205233404#17 78114495 -78119061#0 -78110502#0 -78103708#1 78120124#0 78108141#3"/>
    </vehicle>
    <vehicle id="Colman vuelta-58" type="Default" depart="55.00" color="yellow">
        <route edges="175346557#2 -175346557#2 -175346557#1 -175346557#0 -78109741#1 -78120102 78120102"/>
    </vehicle>
    <vehicle id="lanus ida-124" type="Default" depart="55.00" color="green">
        <route edges="-78119278#3 78110457 -78111251#5 78118235#1 78118235#2 78114495 78119061#1 78119061#2 78114813#4 78114813#5 78114813#6 78114813#7"/>
    </vehicle>
    <vehicle id="Garzon Ida-300" type="Default" depart="57.00" color="255,204,255">
        <route edges="-78110384 -78106306 219015146#1 219015146#2 219015146#3 219015146#4 219015146#5 219015146#6 219015146#7 219015146#8 219015146#9 219015146#10 219015146#11 219015146#12 219015146#14 219015146#15 219015146#16 219015146#17 219015146#19 219015146#20 219015146#21 219015146#22 219015146#23 219015146#24 219015146#25 219015146#26 219015146#27 219015146#28 219015146#29 219015146#30 219015146#31 219015146#32 219015146#33"/>
    </vehicle>
    <vehicle id="Propios vuelta-43" type="Default" depart="57.00" color="red">
        <route edges="-78105305#1 78105305#1 78106571#0 78106571#1 78106571#2 78118491 78104488#2 78104488#3 78104488#4 78104488#5 78104488#6 78104488#7 78104488#8 78104894#27 78104894#28 78104894#29 78104894#30 78104894#31 164088677#0 164088677#1 164088677#2 164088677#3 164088677#4 -78115227#4"/>
    </vehicle>
    <vehicle id="lanus vuelta-125" type="Default" depart="58.00" color="0,255,51">
        <route edges="78109168 -78109168 -78108233#0 78110502#0 78110502#1 219015146#26 219015146#27 219015146#28 175174060#2 -237181019 -78110457 -78119278#2 78119278#2"/>
    </vehicle>
    <vehicle id="Garzon vuelta-194" type="Default" depart="62.00" color="255,204,255">
        <route edges="219015146#34 78109741#1 -78109741#1 78104894#0 78104894#2 78104894#3 78104894#4 78104894#5 78104894#6 78104894#7 78104894#8 78104894#9 78104894#10 78104894#11 78104894#12 78104894#13 78104894#14 78104894#15 78104894#16 78104894#17 78104894#18 78104894#19 78104894#20 78104894#21 78104894#22 78104894#23 78104894#24 78104894#25 78104894#26 78104894#27 78104894#28 78104894#29 78104894#30 78104894#31 78104894#33 78104894#34 78104894#35 78104894#36 78104894#37 78104894#39 78104894#40 78104894#41 78104894#42 78104894#43 78104894#44 78104894#45 78104894#46 78104894#47 -205233404#1 -205233404#0"/>
    </vehicle>
    <vehicle id="Garzon vuelta-282" type="Default" depart="64.00" color="255,204,255">
        <route edges="219015146#34 78109741#1 -78109741#1 78104894#0 78104894#2 78104894#3 78104894#4 78104894#5 78104894#6 78104894#7 78104894#8 78104894#9 78104894#10 78104894#11 78104894#12 78104894#13 78104894#14 78104894#15 78104894#16 78104894#17 78104894#18 78104894#19 78104894#20 78104894#21 78104894#22 78104894#23 78104894#24 78104894#25 78104894#26 78104894#27 78104894#28 78104894#29 78104894#30 78104894#31 78104894#33 78104894#34 78104894#35 78104894#36 78104894#37 78104894#39 78104894#40 78104894#41 78104894#42 78104894#43 78104894#44 78104894#45 78104894#46 78104894#47 78104894#48 -219015159#3 78104577#1 78120448#6 78120448#7 -78120448#7"/>
    </vehicle>
    <vehicle id="Colman vuelta-190" type="Default" depart="65.00" color="yellow">
        <route edges="205233422#8 -205233422#8 -175346557#2 -175346557#1 -175346557#0 -78109741#1 -78120102 -78115663 -217654234"/>
    </vehicle>
    <vehicle id="Garzon Ida-167" type="Default" depart="65.00" color="255,204,255">
        <route edges="219015146#1 219015146#2 219015146#3 219015146#4 219015146#5 219015146#6 219015146#7 219015146#8 219015146#9 219015146#10 219015146#11 219015146#12 219015146#14 219015146#15 219015146#16 219015146#17 219015146#19 219015146#20 219015146#21 219015146#22 219015146#23 219015146#24 219015146#25 219015146#26 219015146#27 219015146#28 219015146#29 219015146#30 219015146#31 219015146#32 219015146#33 219015146#34 78109741#1 -78109741#1 78104894#0 78104894#2"/>
    </vehicle>
    <vehicle id="Propios ida-436" type="Default" depart="65.00" color="255,0,51">
        <route edges="-78114146#0 78114146#0 78114146#1 78114146#2 78114146#3 78114146#4 164103646#0 164088677#0 164088677#1 164088677#2 164088677#3 -78109121#1 78120381#2"/>
    </vehicle>
    <vehicle id="Colman ida-68" type="Default" depart="67.00" color="yellow">
        <route edges="-78120102 78120102 78109741#1 175346557#0 175346557#1 175346557#2 -205233422#7"/>
    </vehicle>
    <vehicle id="lanus vuelta-101" type="Default" depart="67.00" color="0,255,51">
        <route edges="78108233#0 -78108233#0 78110502#0 78110502#1 219015146#26 219015146#27 219015146#28 175174060#2 -237181019 -78110457 -78119278#2 78119278#2"/>
    </vehicle>
    <vehicle id="Ariel ida-133" type="Default" depart="68.00" color="255,255,204">
        <route edges="-78107731#0 219015161#1 219015161#2 219015161#3 219015161#6 78112876#0 -78103531#1 -78103531#0 78103531#0"/>
    </vehicle>
    <vehicle id="Colman vuelta-25" type="Default" depart="68.00" color="yellow">
        <route edges="175346557#2 -175346557#2 -175346557#1 -175346557#0 -78109741#1 78104894#0 217654218#1 -237181022#4 -237181022#3 -78107174#2 -78107174#1 -78107174#0"/>
    </vehicle>
    <vehicle id="Colman vuelta-88" type="Default" depart="69.00" color="yellow">
        <route edges="78117631 -78117631 205233422#7 -175346557#2 -175346557#1 -175346557#0 -78109741#1 -78120102 -78115663 78115663"/>
    </vehicle>
    <vehicle id="Propios ida-347" type="Default" depart="70.00" color="255,0,51">
        <route edges="164112302#0 78106343#0 78106343#1 78106571#2 78118491 78104488#2 78104488#3 78104488#4 78104488#5 78104488#6 78104488#7 78104488#8 78104894#27 78104894#28 78104894#29 78104894#30 78104894#31 164088677#0 164088677#1 164088677#2 -260980918#0 -176376526#5 78103006#1 -78103006#1"/>
    </vehicle>
    <vehicle id="Propios vuelta-199" type="Default" depart="70.00" color="red">
        <route edges="78106571#0 78106571#1 78106571#2 78118491 78104488#2 78104488#3 78104488#4 78104488#5 78104488#6 78104488#7 78104488#8 78104894#27 78104894#28 78104894#29 78104894#30 78104894#31 164088677#0 164088677#1 164088677#2 164088677#3 164088677#4 164088677#5 78117418 -78116811#6"/>
    </vehicle>
    <vehicle id="Propios vuelta-26" type="Default" depart="72.00" color="red">
        <route edges="164112300#0 78105305#1 78106571#0 78106571#1 78106571#2 78118491 78104488#2 78104488#3 78104488#4 78104488#5 78104488#6 78104488#7 78104488#8 78104894#27 78104894#28 78104894#29 78104894#30 78104894#31 164088677#0 164088677#1 164088677#2 -260980918#0 260980918#0"/>
    </vehicle>
    <vehicle id="Garzon vuelta-387" type="Default" depart="76.00" color="255,204,255">
        <route edges="78104894#0 78104894#2 78104894#3 78104894#4 78104894#5 78104894#6 78104894#7 78104894#8 78104894#9 78104894#10 78104894#11 78104894#12 78104894#13 78104894#14 78104894#15 78104894#16 78104894#17 78104894#18 78104894#19 78104894#20 78104894#21 78104894#22 78104894#23 78104894#24 78104894#25 78104894#26 78104894#27 78104894#28 78104894#29 78104894#30 78104894#31 78104894#33 78104894#34 78104894#35 78104894#36 78104894#37 78104894#39 78104894#40 78104894#41 78104894#42 78104894#43 78104894#44 78104894#45 78104894#46 78104894#47 78104894#48 -219015159#3 78104577#1 78120448#6 78120448#7"/>
    </vehicle>
    <vehicle id="Propios ida-335" type="Default" depart="80.00" color="255,0,51">
        <route edges="-78106343#0 78106343#0 78106343#1 78106571#2 78118491 78104488#2 78104488#3 78104488#4 78104488#5 78104488#6 78104488#7 78104488#8 78104894#27 78104894#28 78104894#29 78104894#30 78104894#31 164088677#0 164088677#1 164088677#2 164088677#3 164088677#4 164088677#5 78117418 78116811#7"/>
    </vehicle>
    <vehicle id="Colman vuelta-73" type="Default" depart="84.00" color="yellow">
        <route edges="-78105718#1 -78103595#1 179076035#2 -78119363#9 -78119363#8 -78119363#5 -78119363#4 -78119363#3 -78119363#2 -78119363#1 -78119363#0"/>
    </vehicle>
    <vehicle id="Saravia ida-8" type="Default" depart="84.00" color="204,255,255">
        <route edges="-241572207 165264989#1 165264989#2 165264989#3 165264989#4 219015147#0 219015147#1 219015147#2 219015147#3 219015147#4 -78112876#3 78112876#3"/>
    </vehicle>
    <vehicle id="Propios ida-261" type="Default" depart="86.00" color="255,0,51">
        <route edges="164112635#0 78111878#0 164121089#2 164112301#2 164112298 78114146#0 78114146#1 78114146#2 78114146#3 78114146#4 164103646#0 164088677#0 164088677#1 164088677#2 164088677#3 164088677#4 164088677#5 78117418 176376723#1"/>
    </vehicle>
    <vehicle id="Ariel ida-144" type="Default" depart="87.00" color="255,255,204">
        <route edges="-219015161#0 78108804#0 78108804#1 78108804#2 78108804#3 78104894#39 78104894#40 219015161#6 219015161#7 219015161#8"/>
    </vehicle>
    <vehicle id="Ariel ida-125" type="Default" depart="88.00" color="255,255,204">
        <route edges="219015161#1 219015161#2 219015161#3 219015161#6 78112876#0 78112876#1 78112876#2 78107092 78099631#1"/>
    </vehicle>
    <vehicle id="Garzon Ida-240" type="Default" depart="88.00" color="255,204,255">
        <route edges="78110384 -78110384 -78106306 219015146#1 219015146#2 219015146#3 219015146#4 219015146#5 219015146#6 219015146#7 219015146#8 219015146#9 219015146#10 219015146#11 219015146#12 219015146#14 219015146#15 219015146#16 219015146#17 219015146#19 219015146#20 219015146#21 219015146#22 219015146#23 219015146#24 219015146#25 219015146#26 219015146#27 219015146#28 219015146#29 219015146#30 219015146#31 219015146#32 219015146#33"/>
    </vehicle>
    <vehicle id="lanus vuelta-131" type="Default" depart="88.00" color="0,255,51">
        <route edges="-78109168 -78108233#0 78110502#0 78110502#1 219015146#26 219015146#27 219015146#28 175174060#2 -237181019 237181022#0 237181022#1 -237181022#1"/>
    </vehicle>
    <vehicle id="Propios ida-73" type="Default" depart="91.00" color="255,0,51">
        <route edges="164112301#5 164112301#6 164112301#1 164112301#2 164112298 78114146#0 78114146#1 78114146#2 78114146#3 78114146#4 164103646#0 164088677#0 164088677#1 164088677#2 -260980918#0 -176376526#5"/>
    </vehicle>
    <vehicle id="Ariel ida-84" type="Default" depart="97.00" color="255,255,204">
        <route edges="-78107731#0 219015161#1 219015161#2 219015161#3 219015161#6 219015161#7 219015161#8"/>
    </vehicle>
    <vehicle id="Colman vuelta-87" type="Default" depart="104.00" color="yellow">
        <route edges="-78117631 205233422#7 -175346557#2 -175346557#1 -175346557#0 -78109741#1 -78120102 -78115663"/>
    </vehicle>
    <vehicle id="Ariel ida-188" type="Default" depart="105.00" color="255,255,204">
        <route edges="-219015161#0 78108804#0 78108804#1 78108804#2 78108804#3 78104894#39 78104894#40 219015161#6 219015161#7 219015161#8 78099631#3 -78114471 78114471"/>
    </vehicle>
    <vehicle id="Garzon Ida-272" type="Default" depart="107.00" color="255,204,255">
        <route edges="78103742#1 -219015159#6 219015146#2 219015146#3 219015146#4 219015146#5 219015146#6 219015146#7 219015146#8 219015146#9 219015146#10 219015146#11 219015146#12 219015146#14 219015146#15 219015146#16 219015146#17 219015146#19 219015146#20 219015146#21 219015146#22 219015146#23 219015146#24 219015146#25 219015146#26 219015146#27 219015146#28 219015146#29 219015146#30 219015146#31 219015146#32 219015146#33 219015146#34 78109741#1 -78109741#1 78104894#0 78104894#2"/>
    </vehicle>
    <vehicle id="Propios vuelta-182" type="Default" depart="110.00" color="red">
        <route edges="164112301#1 164112301#2 164112298 78114146#0 78114146#1 78114146#2 78114146#3 78114146#4 164103646#0 164088677#0 164088677#1 164088677#2"/>
    </vehicle>
    <vehicle id="Garzon Ida-359" type="Default" depart="111.00" color="255,204,255">
        <route edges="-78106306 219015146#1 219015146#2 219015146#3 219015146#4 219015146#5 219015146#6 219015146#7 219015146#8 219015146#9 219015146#10 219015146#11 219015146#12 219015146#14 219015146#15 219015146#16 219015146#17 219015146#19 219015146#20 219015146#21 219015146#22 219015146#23 219015146#24 219015146#25 219015146#26 219015146#27 219015146#28 219015146#29 219015146#30 219015146#31 219015146#32 219015146#33"/>
    </vehicle>
    <vehicle id="Propios ida-30" type="Default" depart="112.00" color="255,0,51">
        <route edges="164112302#0 78106343#0 78106343#1 78106571#2 78118491 78104488#2 78104488#3 78104488#4 78104488#5 78104488#6 78104488#7 78104488#8 78104894#27 78104894#28 78104894#29 78104894#30 78104894#31 164088677#0 164088677#1 164088677#2 -260980918#0 -176376526#5 176376526#5"/>
    </vehicle>
    <vehicle id="Garzon vuelta-96" type="Default" depart="113.00" color="255,204,255">
        <route edges="219015146#34 78109741#1 -78109741#1 78104894#0 78104894#2 78104894#3 78104894#4 78104894#5 78104894#6 78104894#7 78104894#8 78104894#9 78104894#10 78104894#11 78104894#12 78104894#13 78104894#14 78104894#15 78104894#16 78104894#17 78104894#18 78104894#19 78104894#20 78104894#21 78104894#22 78104894#23 78104894#24 78104894#25 78104894#26 78104894#27 78104894#28 78104894#29 78104894#30 78104894#31 78104894#33 78104894#34 78104894#35 78104894#36 78104894#37 78104894#39 78104894#40 78104894#41 78104894#42 78104894#43 78104894#44 78104894#45 78104894#46 78104894#47 78104894#48 -219015159#3 78104577#1 78120448#6 78120448#7"/>
    </vehicle>
    <vehicle id="Propios vuelta-135" type="Default" depart="114.00" color="red">
        <route edges="78104488#0 78104488#1 78104488#2 78104488#3 78104488#4 78104488#5 78104488#6 78104488#7 78104488#8 78104894#27 78104894#28 78104894#29 78104894#30 78104894#31 164088677#0 164088677#1 164088677#2 -260980918#0 -176376526#5 78103006#1 -78116811#7"/>
    </vehicle>
    <vehicle id="Ariel ida-78" type="Default" depart="115.00" color="255,255,204">
        <route edges="78107731#0 -78107731#0 219015161#1 219015161#2 219015161#3 219015161#6 219015161#7 219015161#8 -78099631#2"/>
    </vehicle>
    <vehicle id="Propios vuelta-292" type="Default" depart="115.00" color="red">
        <route edges="-78114146#1 78114146#1 78114146#2 78114146#3 78114146#4 164103646#0 164088677#0 164088677#1 164088677#2 164088677#3 -78109121#1 -78109121#0 78111878#11"/>
    </vehicle>
    <vehicle id="Garzon vuelta-135" type="Default" depart="118.00" color="255,204,255">
        <route edges="78104894#0 78104894#2 78104894#3 78104894#4 78104894#5 78104894#6 78104894#7 78104894#8 78104894#9 78104894#10 78104894#11 78104894#12 78104894#13 78104894#14 78104894#15 78104894#16 78104894#17 78104894#18 78104894#19 78104894#20 78104894#21 78104894#22 78104894#23 78104894#24 78104894#25 78104894#26 78104894#27 78104894#28 78104894#29 78104894#30 78104894#31 78104894#33 78104894#34 78104894#35 78104894#36 78104894#37 78104894#39 78104894#40 78104894#41 78104894#42 78104894#43 78104894#44 78104894#45 78104894#46 78104894#47 78104894#48 78104894#49 78104894#50"/>