<?xml version="1.0" encoding="UTF-8"?>

<!-- generated on 01/10/15 15:54:51 by SUMO duarouter Version 0.22.0
<?xml version="1.0" encoding="UTF-8"?>

<configuration xmlns:xsi="http://www.w3.org/2001/XMLSchema-instance" xsi:noNamespaceSchemaLocation="http://sumo.dlr.de/xsd/duarouterConfiguration.xsd">

    <input>
        <net-file value="sim.net.xml"/>
        <trip-files value="sim.generated-trips.xml"/>
    </input>

    <output>
        <output-file value="sim.rou.xml"/>
    </output>

    <processing>
        <ignore-errors value="true"/>
    </processing>

</configuration>
-->

<routes xmlns:xsi="http://www.w3.org/2001/XMLSchema-instance" >
    <vType id="Default" length="5.00" maxSpeed="70.00">
        <carFollowing-Krauss accel="2.60" decel="4.50" sigma="0.50"/>
    </vType>
    <vehicle id="Colman ida-40" type="Default" depart="0.00" color="184,2,59">
        <route edges="-78115663 78115663 78120102 78109741#1 175346557#0 175346557#1 175346557#2 205233422#8"/>
    </vehicle>
    <vehicle id="Propios vuelta-171" type="Default" depart="2.00" color="196,236,121">
        <route edges="164088677#5 78117418 176376723#1 176376723#2 176376723#3 176376723#4 176376723#5 176376723#6 164103645#2 -78114146#4 -78114146#3 -78114146#2 -78114146#1 -78114146#0 164112299 164112301#4 164112301#5 164112301#6 164112301#1"/>
    </vehicle>
    <vehicle id="autos ida -211" type="Default" depart="4.00" color="198,128,14">
        <route edges="78115304#2 78115304#3 205233880 205233881 219015146#0 219015146#1 219015146#2 219015146#3 219015146#4 219015146#5 219015146#6 219015146#7 219015146#8 219015146#9 219015146#10 219015146#11 219015146#12 219015146#14 219015146#15 219015146#16 219015146#17 219015146#19 219015146#20 219015146#21 219015146#22 219015146#23 219015146#24 219015146#25 219015146#26 219015146#27 219015146#28 219015146#29 219015146#30 219015146#31 219015146#32 219015146#33 219015146#34 78109741#1"/>
    </vehicle>
    <vehicle id="millan ida-32" type="Default" depart="5.00" color="186,209,193">
        <route edges="164121089#1 78111878#1 78111878#2 241572204#4 78113638#1 78113638#2 78113638#3 78104894#36 78104894#37 78108804#6 78108804#7 78108804#8 78108804#9 78108804#10"/>
    </vehicle>
    <vehicle id="autos ida -22" type="Default" depart="6.00" color="198,128,14">
        <route edges="78110837 78114894#0 -78110384 -78106306 219015146#1 219015146#2 219015146#3 219015146#4 219015146#5 219015146#6 219015146#7 219015146#8 219015146#9 219015146#10 219015146#11 219015146#12 219015146#14 219015146#15 219015146#16 219015146#17 219015146#19 219015146#20 219015146#21 219015146#22 219015146#23 219015146#24 219015146#25 219015146#26 219015146#27 219015146#28 219015146#29 219015146#30 219015146#31 219015146#32 219015146#33 219015146#34 -78120102"/>
    </vehicle>
    <vehicle id="Colman vuelta-19" type="Default" depart="8.00" color="239,233,91">
        <route edges="78119363#0 78119363#1 78119363#2 78119363#3 78119363#4 78119363#5 78119363#8 78119363#9 -179076035#2 78103595#1 78105718#1"/>
    </vehicle>
    <vehicle id="autos ida -71" type="Default" depart="12.00" color="198,128,14">
        <route edges="78115304#2 78115304#3 205233880 205233881 219015146#0 219015146#1 219015146#2 219015146#3 219015146#4 219015146#5 219015146#6 219015146#7 219015146#8 219015146#9 219015146#10 219015146#11 219015146#12 219015146#14 219015146#15 219015146#16 219015146#17 219015146#19 219015146#20 219015146#21 219015146#22 219015146#23 219015146#24 219015146#25 219015146#26 219015146#27 219015146#28 219015146#29 219015146#30 219015146#31 219015146#32 219015146#33 219015146#34 78109741#1 -78109741#1"/>
    </vehicle>

    <vehicle id="Colman vuelta-54" type="Default" depart="16.00" color="239,233,91">
        <route edges="-78107174#0 78119363#1 78119363#2 78119363#3 78119363#4 237181022#5 219015146#34 78109741#1 175346557#0 175346557#1 175346557#2 205233422#8 -205233422#8"/>
    </vehicle>
    <vehicle id="lanus ida-87" type="Default" depart="17.00" color="220,228,88">
        <route edges="-78110457 78110457 237181019 175174062#0 175174062#1 78104894#11 78104894#12 78104894#13 78104894#14 219015157 -219015157 219015146#25 -78110502#1 -78110502#0 78108233#0 78108233#1 78108233#2"/>
    </vehicle>
    <vehicle id="Saravia Ida-93" type="Default" depart="20.00" color="190,33,149">
        <route edges="-165264989#1 165264989#1 165264989#2 165264989#3 165264989#4 219015147#0 219015147#1 219015147#2"/>
    </vehicle>
    <vehicle id="autos vuelta-384" type="Default" depart="21.00" color="42,222,96">
        <route edges="78109741#1 -78109741#1 78104894#0 78104894#2 78104894#3 78104894#4 78104894#5 78104894#6 78104894#7 78104894#8 78104894#9 78104894#10 78104894#11 78104894#12 78104894#13 78104894#14 78104894#15 78104894#16 78104894#17 78104894#18 78104894#19 78104894#20 78104894#21 78104894#22 78104894#23 78104894#24 78104894#25 78104894#26 78104894#27 78104894#28 78104894#29 78104894#30 78104894#31 78104894#33 78104894#34 78104894#35 78104894#36 78104894#37 78104894#39 78104894#40 78104894#41 78104894#42 78104894#43 78104894#44 78104894#45 78104894#46 78104894#47 78104894#48 78104894#49 78104894#50 78104894#51"/>
    </vehicle>
    <vehicle id="Colman ida-70" type="Default" depart="22.00" color="184,2,59">
        <route edges="-78107174#0 78119363#1 78119363#2 78119363#3 78119363#4 78119363#5 78119363#8 78119363#9 -179076035#2 78103595#1 78105718#1 205233422#6 78117631"/>
    </vehicle>
    <vehicle id="autos ida -189" type="Default" depart="22.00" color="198,128,14">
        <route edges="-248424397#2 -248424397#1 78115304#0 78115304#1 78115304#2 78115304#3 205233880 205233881 219015146#0 219015146#1 219015146#2 219015146#3 219015146#4 219015146#5 219015146#6 219015146#7 219015146#8 219015146#9 219015146#10 219015146#11 219015146#12 219015146#14 219015146#15 219015146#16 219015146#17 219015146#19 219015146#20 219015146#21 219015146#22 219015146#23 219015146#24 219015146#25 219015146#26 219015146#27 219015146#28 219015146#29 219015146#30 219015146#31 219015146#32 219015146#33 219015146#34 -78120102 78120102"/>
    </vehicle>
    <vehicle id="autos vuelta-407" type="Default" depart="22.00" color="42,222,96">
        <route edges="-78109741#1 78104894#0 78104894#2 78104894#3 78104894#4 78104894#5 78104894#6 78104894#7 78104894#8 78104894#9 78104894#10 78104894#11 78104894#12 78104894#13 78104894#14 78104894#15 78104894#16 78104894#17 78104894#18 78104894#19 78104894#20 78104894#21 78104894#22 78104894#23 78104894#24 78104894#25 78104894#26 78104894#27 78104894#28 78104894#29 78104894#30 78104894#31 78104894#33 78104894#34 78104894#35 78104894#36 78104894#37 78104894#39 78104894#40 78104894#41 78104894#42 78104894#43 78104894#44 78104894#45 78104894#46 78104894#47 78104894#48 78104894#49 78104894#50 78104894#51"/>
    </vehicle>
    <vehicle id="autos vuelta-363" type="Default" depart="24.00" color="42,222,96">
        <route edges="-78109741#1 78104894#0 78104894#2 78104894#3 78104894#4 78104894#5 78104894#6 78104894#7 78104894#8 78104894#9 78104894#10 78104894#11 78104894#12 78104894#13 78104894#14 78104894#15 78104894#16 78104894#17 78104894#18 78104894#19 78104894#20 78104894#21 78104894#22 78104894#23 78104894#24 78104894#25 78104894#26 78104894#27 78104894#28 78104894#29 78104894#30 78104894#31 78104894#33 78104894#34 78104894#35 78104894#36 78104894#37 78104894#39 78104894#40 78104894#41 78104894#42 78104894#43 78104894#44 78104894#45 78104894#46 78104894#47 78104894#48 78104894#49 78104894#50 78104894#51 78105309#0"/>
    </vehicle>
    <vehicle id="Saravia Ida-65" type="Default" depart="26.00" color="190,33,149">
        <route edges="-241572207 165264989#1 165264989#2 165264989#3 165264989#4 219015147#0 219015147#1 -78099611 78110871#1"/>
    </vehicle>
    <vehicle id="Propios vuelta-51" type="Default" depart="28.00" color="196,236,121">
        <route edges="164088677#3 -78109121#1 -78120381#1 -260980918#1 -260980918#0 176376723#2 176376723#3 176376723#4 176376723#5 176376723#6 219015146#19 -78104488#8 -78104488#7 -78104488#6 -78104488#5 -78104488#4 -78104488#3 -78104488#2 -78104488#1 -78118899#2"/>
    </vehicle>
    <vehicle id="autos vuelta-173" type="Default" depart="28.00" color="42,222,96">
        <route edges="-78109741#1 78104894#0 78104894#2 78104894#3 78104894#4 78104894#5 78104894#6 78104894#7 78104894#8 78104894#9 78104894#10 78104894#11 78104894#12 78104894#13 78104894#14 78104894#15 78104894#16 78104894#17 78104894#18 78104894#19 78104894#20 78104894#21 78104894#22 78104894#23 78104894#24 78104894#25 78104894#26 78104894#27 78104894#28 78104894#29 78104894#30 78104894#31 78104894#33 78104894#34 78104894#35 78104894#36 78104894#37 78104894#39 78104894#40 78104894#41 78104894#42 78104894#43 78104894#44 78104894#45 78104894#46 78104894#47 78104894#48 78104894#49 78104894#50 78104894#51"/>
    </vehicle>
    <vehicle id="millan vuelta-24" type="Default" depart="32.00" color="111,247,23">
        <route edges="78116811#0 78116811#1 78117297#3 78117297#4 78117297#5 78117297#6 78117297#7 78117297#10 78117297#11 78117297#12 78117297#13"/>
    </vehicle>
    <vehicle id="autos vuelta-300" type="Default" depart="35.00" color="42,222,96">
        <route edges="78104894#0 78104894#2 78104894#3 78104894#4 78104894#5 78104894#6 78104894#7 78104894#8 78104894#9 78104894#10 78104894#11 78104894#12 78104894#13 78104894#14 78104894#15 78104894#16 78104894#17 78104894#18 78104894#19 78104894#20 78104894#21 78104894#22 78104894#23 78104894#24 78104894#25 78104894#26 78104894#27 78104894#28 78104894#29 78104894#30 78104894#31 78104894#33 78104894#34 78104894#35 78104894#36 78104894#37 78104894#39 78104894#40 78104894#41 78104894#42 78104894#43 78104894#44 78104894#45 78104894#46 78104894#47 78104894#48 78104894#49 78104894#50 78104894#51"/>
    </vehicle>
    <vehicle id="Propios ida-72" type="Default" depart="36.00" color="132,163,211">
        <route edges="78114146#1 78114146#2 78114146#3 78114146#4 164103646#0 164088677#0 164088677#1 164088677#2 -260980918#0 -176376526#5 -176376526#4 -176376526#3 78107195 78116811#9 -78116811#9"/>
    </vehicle>
    <vehicle id="Colman vuelta-38" type="Default" depart="38.00" color="239,233,91">
        <route edges="78110889 78107174#1 78107174#2 237181022#3 237181022#4 78119363#5 78119363#8 78119363#9 -179076035#2 78103595#1 78105718#1 205233422#6 -205233422#6"/>
    </vehicle>
    <vehicle id="autos vuelta-243" type="Default" depart="39.00" color="42,222,96">
        <route edges="237181042 78104894#0 78104894#2 78104894#3 78104894#4 78104894#5 78104894#6 78104894#7 78104894#8 78104894#9 78104894#10 78104894#11 78104894#12 78104894#13 78104894#14 78104894#15 78104894#16 78104894#17 78104894#18 78104894#19 78104894#20 78104894#21 78104894#22 78104894#23 78104894#24 78104894#25 78104894#26 78104894#27 78104894#28 78104894#29 78104894#30 78104894#31 78104894#33 78104894#34 78104894#35 78104894#36 78104894#37 78104894#39 78104894#40 78104894#41 78104894#42 78104894#43 78104894#44 78104894#45 78104894#46 78104894#47 78104894#48 78104894#49 78104894#50 78104894#51"/>
    </vehicle>
    <vehicle id="autos ida -15" type="Default" depart="40.00" color="198,128,14">
        <route edges="205233879 205233411 205233404#0 205233404#1 205233404#2 205233404#3 -165264989#4 165264989#4 219015146#7 219015146#8 219015146#9 219015146#10 219015146#11 219015146#12 219015146#14 219015146#15 219015146#16 219015146#17 219015146#19 219015146#20 219015146#21 219015146#22 219015146#23 219015146#24 219015146#25 219015146#26 219015146#27 219015146#28 219015146#29 219015146#30 219015146#31 219015146#32 219015146#33 219015146#34 78109741#1 -78109741#1 78104894#0"/>
    </vehicle>
    <vehicle id="Propios ida-178" type="Default" depart="41.00" color="132,163,211">
        <route edges="-78106571#1 78106571#1 78106571#2 78106571#3 78106571#4 78106571#5 78108816#1 78116644#1 78116644#2 78116644#3 78116644#4 78116644#5 78104894#28 78104894#29 78104894#30 78104894#31 164088677#0 164088677#1 164088677#2 -260980918#0 -176376526#5 -176376526#4 -176376526#3 78107195 78116811#9"/>
    </vehicle>
    <vehicle id="autos vuelta-425" type="Default" depart="43.00" color="42,222,96">
        <route edges="78104894#0 78104894#2 78104894#3 78104894#4 78104894#5 78104894#6 78104894#7 78104894#8 78104894#9 78104894#10 78104894#11 78104894#12 78104894#13 78104894#14 78104894#15 78104894#16 78104894#17 78104894#18 78104894#19 78104894#20 78104894#21 78104894#22 78104894#23 78104894#24 78104894#25 78104894#26 78104894#27 78104894#28 78104894#29 78104894#30 78104894#31 78104894#33 78104894#34 78104894#35 78104894#36 78104894#37 78104894#39 78104894#40 78104894#41 78104894#42 78104894#43 78104894#44 78104894#45 78104894#46 78104894#47 78104894#48 78104894#49 78104894#50 78104894#51"/>
    </vehicle>
    <vehicle id="millan ida-175" type="Default" depart="44.00" color="186,209,193">
        <route edges="164088679 78108804#0 78108804#1 78108804#2 78108804#3 78108804#6 78108804#7 78108804#8 78108804#9 78108804#10 78108804#11"/>
    </vehicle>
    <vehicle id="autos ida -159" type="Default" depart="52.00" color="198,128,14">
        <route edges="240219419 205233407#0 219015146#0 219015146#1 219015146#2 219015146#3 219015146#4 219015146#5 219015146#6 219015146#7 219015146#8 219015146#9 219015146#10 219015146#11 219015146#12 219015146#14 219015146#15 219015146#16 219015146#17 219015146#19 219015146#20 219015146#21 219015146#22 219015146#23 219015146#24 219015146#25 219015146#26 219015146#27 219015146#28 219015146#29 219015146#30 219015146#31 219015146#32 219015146#33 219015146#34 78109741#1 -78109741#1"/>
    </vehicle>
    <vehicle id="Colman ida-59" type="Default" depart="54.00" color="184,2,59">
        <route edges="-78119363#0 78115663 78120102 78109741#1 175346557#0 175346557#1 175346557#2 -205233422#7 78117631 -78117631"/>
    </vehicle>
    <vehicle id="Colman vuelta-76" type="Default" depart="56.00" color="239,233,91">
        <route edges="78110889 78107174#1 78107174#2 237181022#3 237181022#4 78119363#5 78119363#8 78119363#9 -179076035#2 78103595#1 78105718#1"/>
    </vehicle>
    <vehicle id="millan ida-111" type="Default" depart="56.00" color="186,209,193">
        <route edges="164088679 78108804#0 78108804#1 78108804#2 78108804#3 78108804#6 78108804#7 78108804#8 78108804#9 78108804#10 -78116811#0"/>
    </vehicle>
    <vehicle id="autos vuelta-293" type="Default" depart="59.00" color="42,222,96">
        <route edges="78109741#1 -78109741#1 78104894#0 78104894#2 78104894#3 78104894#4 78104894#5 78104894#6 78104894#7 78104894#8 78104894#9 78104894#10 78104894#11 78104894#12 78104894#13 78104894#14 78104894#15 78104894#16 78104894#17 78104894#18 78104894#19 78104894#20 78104894#21 78104894#22 78104894#23 78104894#24 78104894#25 78104894#26 78104894#27 78104894#28 78104894#29 78104894#30 78104894#31 78104894#33 78104894#34 78104894#35 78104894#36 78104894#37 78104894#39 78104894#40 78104894#41 78104894#42 78104894#43 78104894#44 78104894#45 78104894#46 78104894#47 78104894#48 78104894#49 78104894#50 78104894#51"/>
    </vehicle>
    <vehicle id="Propios ida-172" type="Default" depart="61.00" color="132,163,211">
        <route edges="-78118899#2 78106571#1 78106571#2 78106571#3 78106571#4 78106571#5 78108816#1 78116644#1 78116644#2 78116644#3 78116644#4 78116644#5 78104894#28 78104894#29 78104894#30 78104894#31 164088677#0 164088677#1 164088677#2 164088677#3 164088677#4 -78115227#4 -78115227#3"/>
    </vehicle>
    <vehicle id="saravia vuelta-95" type="Default" depart="65.00" color="132,18,110">
        <route edges="-78116435#0 -219015149#1 -219015149#0 219015146#4 219015146#5 219015146#6 219015147#0 -219015147#0 -165264989#4 -165264989#3 -165264989#2 78114085#0"/>
    </vehicle>
    <vehicle id="autos vuelta-74" type="Default" depart="71.00" color="42,222,96">
        <route edges="78120102 78104894#0 78104894#2 78104894#3 78104894#4 78104894#5 78104894#6 78104894#7 78104894#8 78104894#9 78104894#10 78104894#11 78104894#12 78104894#13 78104894#14 78104894#15 78104894#16 78104894#17 78104894#18 78104894#19 78104894#20 78104894#21 78104894#22 78104894#23 78104894#24 78104894#25 78104894#26 78104894#27 78104894#28 78104894#29 78104894#30 78104894#31 78104894#33 78104894#34 78104894#35 78104894#36 78104894#37 78104894#39 78104894#40 78104894#41 78104894#42 78104894#43 78104894#44 78104894#45 78104894#46 78104894#47 78104894#48 78104894#49 78104894#50 78104894#51"/>
    </vehicle>
    <vehicle id="Propios ida-162" type="Default" depart="73.00" color="132,163,211">
        <route edges="164112301#4 164112301#5 164112301#6 164112301#1 164112301#2 164112298 78114146#0 78114146#1 78114146#2 78114146#3 78114146#4 164103646#0 164088677#0 164088677#1 164088677#2 164088677#3 164088677#4 164088677#5 78117418 -78116811#6"/>
    </vehicle>
    <vehicle id="Saravia Ida-71" type="Default" depart="74.00" color="190,33,149">
        <route edges="165264989#1 165264989#2 165264989#3 165264989#4 219015147#0 219015147#1 219015147#2 219015147#3 219015147#4 -78112876#3 78112876#3"/>
    </vehicle>
    <vehicle id="millan ida-174" type="Default" depart="74.00" color="186,209,193">
        <route edges="164088679 78108804#0 78108804#1 78108804#2 78108804#3 78108804#6 78108804#7 78108804#8 78108804#9 78108804#10 78108804#11 78116766#0"/>
    </vehicle>
    <vehicle id="Propios ida-226" type="Default" depart="75.00" color="132,163,211">
        <route edges="78106343#1 78106571#2 78106571#3 78106571#4 78106571#5 78108816#1 78116644#1 78116644#2 78116644#3 78116644#4 78116644#5 78104894#28 78104894#29 78104894#30 78104894#31 164088677#0 164088677#1 164088677#2 164088677#3 164088677#4 164088677#5 78117418 -78116811#6 -78116811#5 -78116811#4 78116811#4"/>
    </vehicle>
    <vehicle id="autos vuelta-7" type="Default" depart="76.00" color="42,222,96">
        <route edges="219015146#34 78109741#1 -78109741#1 78104894#0 78104894#2 78104894#3 78104894#4 78104894#5 78104894#6 78104894#7 78104894#8 78104894#9 78104894#10 78104894#11 78104894#12 78104894#13 78104894#14 78104894#15 78104894#16 78104894#17 78104894#18 78104894#19 78104894#20 78104894#21 78104894#22 78104894#23 78104894#24 78104894#25 78104894#26 78104894#27 78104894#28 78104894#29 78104894#30 78104894#31 78104894#33 78104894#34 78104894#35 78104894#36 78104894#37 78104894#39 78104894#40 78104894#41 78104894#42 78104894#43 78104894#44 78104894#45 78104894#46 78104894#47 78104894#48 78104894#49 78104894#50 78104894#51"/>
    </vehicle>
    <vehicle id="lanus vuelta-84" type="Default" depart="77.00" color="222,8,66">
        <route edges="78120124#0 -78120124#0 78103708#1 78110502#0 78110502#1 219015146#26 219015146#27 219015146#28 175174060#2 -237181019 -78110457 78119278#3"/>
    </vehicle>
    <vehicle id="Propios ida-191" type="Default" depart="78.00" color="132,163,211">
        <route edges="-78114146#1 78114146#1 78114146#2 78114146#3 78114146#4 164103646#0 164088677#0 164088677#1 164088677#2 164088677#3 164088677#4 164088677#5 78117418 -78116811#6 -78116811#5 -78116811#4"/>
    </vehicle>
    <vehicle id="autos ida -82" type="Default" depart="78.00" color="198,128,14">
        <route edges="78110837 78114894#0 -78110384 -78106306 219015146#1 219015146#2 219015146#3 219015146#4 219015146#5 219015146#6 219015146#7 219015146#8 219015146#9 219015146#10 219015146#11 219015146#12 219015146#14 219015146#15 219015146#16 219015146#17 219015146#19 219015146#20 219015146#21 219015146#22 219015146#23 219015146#24 219015146#25 219015146#26 219015146#27 219015146#28 219015146#29 219015146#30 219015146#31 219015146#32 219015146#33 219015146#34"/>
    </vehicle>
    <vehicle id="millan ida-104" type="Default" depart="78.00" color="186,209,193">
        <route edges="164088679 78108804#0 78108804#1 78108804#2 78108804#3 78108804#6 78108804#7 78108804#8 78108804#9 78108804#10 78108804#11 78108804#12 78108804#13 78099631#6 78117297#0"/>
    </vehicle>
    <vehicle id="autos vuelta-26" type="Default" depart="79.00" color="42,222,96">
        <route edges="78120102 78104894#0 78104894#2 78104894#3 78104894#4 78104894#5 78104894#6 78104894#7 78104894#8 78104894#9 78104894#10 78104894#11 78104894#12 78104894#13 78104894#14 78104894#15 78104894#16 78104894#17 78104894#18 78104894#19 78104894#20 78104894#21 78104894#22 78104894#23 78104894#24 78104894#25 78104894#26 78104894#27 78104894#28 78104894#29 78104894#30 78104894#31 78104894#33 78104894#34 78104894#35 78104894#36 78104894#37 78104894#39 78104894#40 78104894#41 78104894#42 78104894#43 78104894#44 78104894#45 78104894#46 78104894#47 78104894#48 78104894#49 78104894#50 78104894#51"/>
    </vehicle>
    <vehicle id="autos vuelta-276" type="Default" depart="79.00" color="42,222,96">
        <route edges="-78109741#1 78104894#0 78104894#2 78104894#3 78104894#4 78104894#5 78104894#6 78104894#7 78104894#8 78104894#9 78104894#10 78104894#11 78104894#12 78104894#13 78104894#14 78104894#15 78104894#16 78104894#17 78104894#18 78104894#19 78104894#20 78104894#21 78104894#22 78104894#23 78104894#24 78104894#25 78104894#26 78104894#27 78104894#28 78104894#29 78104894#30 78104894#31 78104894#33 78104894#34 78104894#35 78104894#36 78104894#37 78104894#39 78104894#40 78104894#41 78104894#42 78104894#43 78104894#44 78104894#45 78104894#46 78104894#47 78104894#48 78104894#49 78104894#50 78104894#51"/>
    </vehicle>
    <vehicle id="Propios ida-268" type="Default" depart="80.00" color="132,163,211">
        <route edges="-78118899#1 -78118899#0 78114146#1 78114146#2 78114146#3 78114146#4 164103646#0 164088677#0 164088677#1 164088677#2 164088677#3 164088677#4 164088677#5 78117418 176376723#1"/>
    </vehicle>
    <vehicle id="millan vuelta-59" type="Default" depart="81.00" color="111,247,23">
        <route edges="78116811#1 78117297#3 78117297#4 78117297#5 78117297#6 78117297#7 78117297#10 78117297#11 78117297#12 78117297#13"/>
    </vehicle>
    <vehicle id="saravia vuelta-39" type="Default" depart="82.00" color="132,18,110">
        <route edges="219015147#2 -219015147#2 -219015147#1 -219015147#0 -165264989#4 -165264989#3 -165264989#2 -165264989#1 -165264989#0"/>
    </vehicle>
    <vehicle id="Propios ida-29" type="Default" depart="83.00" color="132,163,211">
        <route edges="164112301#3 164112301#4 164112301#5 164112301#6 164112301#1 164112301#2 164112298 78114146#0 78114146#1 78114146#2 78114146#3 78114146#4 164103646#0 164088677#0 164088677#1 164088677#2 -260980918#0 -176376526#5 78103006#1 -78103006#1"/>
    </vehicle>
    <vehicle id="autos vuelta-177" type="Default" depart="85.00" color="42,222,96">
        <route edges="78109741#1 -78109741#1 78104894#0 78104894#2 78104894#3 78104894#4 78104894#5 78104894#6 78104894#7 78104894#8 78104894#9 78104894#10 78104894#11 78104894#12 78104894#13 78104894#14 78104894#15 78104894#16 78104894#17 78104894#18 78104894#19 78104894#20 78104894#21 78104894#22 78104894#23 78104894#24 78104894#25 78104894#26 78104894#27 78104894#28 78104894#29 78104894#30 78104894#31 78104894#33 78104894#34 78104894#35 78104894#36 78104894#37 78104894#39 78104894#40 78104894#41 78104894#42 78104894#43 78104894#44 78104894#45 78104894#46 78104894#47 78104894#48 78104894#49 78104894#50 78104894#51"/>
    </vehicle>
    <vehicle id="Colman ida-79" type="Default" depart="86.00" color="184,2,59">
        <route edges="78119363#1 78119363#2 78119363#3 78119363#4 237181022#5 219015146#34 78109741#1 175346557#0 175346557#1 175346557#2 -205233422#7"/>
    </vehicle>
    <vehicle id="Propios vuelta-164" type="Default" depart="88.00" color="196,236,121">
        <route edges="-78109121#1 -78120381#1 -260980918#1 -260980918#0 176376723#2 176376723#3 176376723#4 176376723#5 176376723#6 164103645#2 -78114146#4 -78114146#3 -78114146#2 -78114146#1 78118899#0 78106343#1"/>
    </vehicle>
    <vehicle id="lanus vuelta-23" type="Default" depart="88.00" color="222,8,66">
        <route edges="78114813#7 205233422#4 179076035#1 179076035#2 -78119363#9 -78119363#8 -78119363#5 -237181022#4 -237181022#3 -237181022#2 78100085#0"/>
    </vehicle>
    <vehicle id="Propios ida-223" type="Default" depart="89.00" color="132,163,211">
        <route edges="-78118899#1 -78118899#0 78114146#1 78114146#2 78114146#3 78114146#4 164103646#0 164088677#0 164088677#1 164088677#2 164088677#3 164088677#4 164088677#5 78117418 -78116811#6 -78116811#5 -78116811#4"/>
    </vehicle>
    <vehicle id="lanus vuelta-10" type="Default" depart="92.00" color="222,8,66">
        <route edges="-78109168 -78108233#0 78110502#0 78110502#1 219015146#26 219015146#27 219015146#28 175174060#2 -237181019 237181022#0 237181022#1 -237181022#1"/>
    </vehicle>
    <vehicle id="autos vuelta-178" type="Default" depart="93.00" color="42,222,96">
        <route edges="-78120102 78120102 78104894#0 78104894#2 78104894#3 78104894#4 78104894#5 78104894#6 78104894#7 78104894#8 78104894#9 78104894#10 78104894#11 78104894#12 78104894#13 78104894#14 78104894#15 78104894#16 78104894#17 78104894#18 78104894#19 78104894#20 78104894#21 78104894#22 78104894#23 78104894#24 78104894#25 78104894#26 78104894#27 78104894#28 78104894#29 78104894#30 78104894#31 78104894#33 78104894#34 78104894#35 78104894#36 78104894#37 78104894#39 78104894#40 78104894#41 78104894#42 78104894#43 78104894#44 78104894#45 78104894#46 78104894#47 78104894#48 78104894#49 78104894#50 78104894#51"/>
    </vehicle>
    <vehicle id="Propios ida-171" type="Default" depart="96.00" color="132,163,211">
        <route edges="78106343#0 -78118899#0 78114146#1 78114146#2 78114146#3 78114146#4 164103646#0 164088677#0 164088677#1 164088677#2 164088677#3 164088677#4 164088677#5 164088677#6"/>
    </vehicle>
    <vehicle id="autos ida -136" type="Default" depart="96.00" color="198,128,14">
        <route edges="240219419 205233407#0 219015146#0 219015146#1 219015146#2 219015146#3 219015146#4 219015146#5 219015146#6 219015146#7 219015146#8 219015146#9 219015146#10 219015146#11 219015146#12 219015146#14 219015146#15 219015146#16 219015146#17 219015146#19 219015146#20 219015146#21 219015146#22 219015146#23 219015146#24 219015146#25 219015146#26 219015146#27 219015146#28 219015146#29 219015146#30 219015146#31 219015146#32 219015146#33 219015146#34 78109741#1 -78109741#1 78104894#0"/>
    </vehicle>
    <vehicle id="saravia vuelta-4" type="Default" depart="96.00" color="132,18,110">
        <route edges="78106794 -78106794 -78112876#4 -219015147#4 -219015147#3 -219015147#2 -219015147#1 -219015147#0 -165264989#4 -165264989#3 -165264989#2 -165264989#1 165264989#1"/>
    </vehicle>
    <vehicle id="Propios ida-62" type="Default" depart="97.00" color="132,163,211">
        <route edges="164112300#1 164112301#6 164112301#1 164112301#2 164112298 78114146#0 78114146#1 78114146#2 78114146#3 78114146#4 164103646#0 164088677#0 164088677#1 164088677#2 -260980918#0 -176376526#5 -78103006#0 78108341#1 -78108341#1"/>
    </vehicle>
    <vehicle id="Propios ida-52" type="Default" depart="98.00" color="132,163,211">
        <route edges="164112302#1 78106571#0 78106571#1 78106571#2 78106571#3 78106571#4 78106571#5 78108816#1 78116644#1 78116644#2 78116644#3 78116644#4 78116644#5 78104894#28 78104894#29 78104894#30 78104894#31 164088677#0 164088677#1 164088677#2 -260980918#0 -176376526#5 -176376526#4 -176376526#3 78107195 78116811#9"/>
    </vehicle>
    <vehicle id="autos vuelta-185" type="Default" depart="102.00" color="42,222,96">
        <route edges="-78120102 78120102 78104894#0 78104894#2 78104894#3 78104894#4 78104894#5 78104894#6 78104894#7 78104894#8 78104894#9 78104894#10 78104894#11 78104894#12 78104894#13 78104894#14 78104894#15 78104894#16 78104894#17 78104894#18 78104894#19 78104894#20 78104894#21 78104894#22 78104894#23 78104894#24 78104894#25 78104894#26 78104894#27 78104894#28 78104894#29 78104894#30 78104894#31 78104894#33 78104894#34 78104894#35 78104894#36 78104894#37 78104894#39 78104894#40 78104894#41 78104894#42 78104894#43 78104894#44 78104894#45 78104894#46 78104894#47 78104894#48 78104894#49 78104894#50 78104894#51"/>
    </vehicle>
    <vehicle id="Propios vuelta-110" type="Default" depart="107.00" color="196,236,121">
        <route edges="-78109121#1 -78120381#1 -260980918#1 -260980918#0 176376723#2 176376723#3 176376723#4 176376723#5 176376723#6 164103645#2 -78114146#4 -78114146#3 -78114146#2 -78114146#1 78118899#0 -78106343#0 78106343#0"/>
    </vehicle>
    <vehicle id="Saravia Ida-0" type="Default" depart="107.00" color="190,33,149">
        <route edges="-165264989#1 165264989#1 165264989#2 165264989#3 165264989#4 219015147#0 219015147#1 219015147#2 219015147#3 219015147#4 219015147#5 78099631#0 -78099631#0"/>
    </vehicle>
    <vehicle id="Propios vuelta-221" type="Default" depart="108.00" color="196,236,121">
        <route edges="78116811#8 -78107195 176376526#3 176376526#4 176376526#5 176376723#2 176376723#3 176376723#4 176376723#5 176376723#6 164103645#2 -78114146#4 -78114146#3 -78114146#2 -78114146#1 78118899#0 -78106343#0"/>
    </vehicle>
    <vehicle id="autos vuelta-314" type="Default" depart="109.00" color="42,222,96">
        <route edges="78104894#0 78104894#2 78104894#3 78104894#4 78104894#5 78104894#6 78104894#7 78104894#8 78104894#9 78104894#10 78104894#11 78104894#12 78104894#13 78104894#14 78104894#15 78104894#16 78104894#17 78104894#18 78104894#19 78104894#20 78104894#21 78104894#22 78104894#23 78104894#24 78104894#25 78104894#26 78104894#27 78104894#28 78104894#29 78104894#30 78104894#31 78104894#33 78104894#34 78104894#35 78104894#36 78104894#37 78104894#39 78104894#40 78104894#41 78104894#42 78104894#43 78104894#44 78104894#45 78104894#46 78104894#47 78104894#48 78104894#49 78104894#50 78104894#51"/>
    </vehicle>
    <vehicle id="lanus vuelta-57" type="Default" depart="111.00" color="222,8,66">
        <route edges="78108141#3 -78108233#1 -78108233#0 78110502#0 78110502#1 219015146#26 219015146#27 219015146#28 175174060#2 -237181019 -78110457 78110457 237181019"/>
    </vehicle>