<?xml version="1.0" encoding="UTF-8"?>

<!-- generated on 11/28/14 17:49:08 by SUMO netconvert Version 0.21.0
<?xml version="1.0" encoding="UTF-8"?>

<configuration xmlns:xsi="http://www.w3.org/2001/XMLSchema-instance" xsi:noNamespaceSchemaLocation="http://sumo-sim.org/xsd/netconvertConfiguration.xsd">

    <input>
        <node-files value="input_nodes.nod.xml"/>
        <connection-files value="input_connections.con.xml"/>
        <osm-files value="mapa_algevo2 _2.osm"/>
    </input>

    <output>
        <output-file value="berlin.net.xml"/>
    </output>

    <projection>
        <proj.utm value="true"/>
    </projection>

    <processing>
        <no-turnarounds.tls value="true"/>
        <geometry.remove value="true"/>
    </processing>

</configuration>
-->

<net version="0.13" xmlns:xsi="http://www.w3.org/2001/XMLSchema-instance" xsi:noNamespaceSchemaLocation="http://sumo-sim.org/xsd/net_file.xsd">

    <location netOffset="-569357.93,3857139.85" convBoundary="0.00,0.00,3044.75,6614.85" origBoundary="-56.241567,-34.854127,-56.208380,-34.794515" projParameter="+proj=utm +zone=21 +ellps=WGS84 +datum=WGS84 +units=m +no_defs"/>

    <edge id=":1757472666_0" function="internal">
        <lane id=":1757472666_0_0" index="0" speed="12.50" length="3.54" shape="1946.23,2973.82 1942.70,2973.69"/>
    </edge>
    <edge id=":1757472666_1" function="internal">
        <lane id=":1757472666_1_0" index="0" speed="12.50" length="18.88" shape="1945.75,2970.55 1939.98,2970.29 1937.38,2968.40 1937.93,2964.89 1941.64,2959.76"/>
    </edge>
    <edge id=":1757472666_2" function="internal">
        <lane id=":1757472666_2_0" index="0" speed="12.50" length="10.35" shape="1946.79,2964.17 1945.21,2966.80 1944.96,2969.20 1944.61,2971.47 1942.70,2973.69"/>
        <lane id=":1757472666_2_1" index="1" speed="12.50" length="10.35" shape="1944.56,2961.74 1940.79,2971.00"/>
    </edge>
    <edge id=":1757472666_4" function="internal">
        <lane id=":1757472666_4_0" index="0" speed="12.50" length="8.13" shape="1936.98,2965.61 1938.39,2958.47"/>
        <lane id=":1757472666_4_1" index="1" speed="12.50" length="8.13" shape="1938.89,2968.30 1941.64,2959.76"/>
    </edge>
    <edge id=":1757472666_6" function="internal">
        <lane id=":1757472666_6_0" index="0" speed="12.50" length="2.41" shape="1938.89,2968.30 1940.37,2968.26 1941.19,2968.70"/>
    </edge>
    <edge id=":1757472666_7" function="internal">
        <lane id=":1757472666_7_0" index="0" speed="12.50" length="2.41" shape="1941.19,2968.70 1941.33,2969.61 1940.79,2971.00"/>
    </edge>
    <edge id=":1757472721_0" function="internal">
        <lane id=":1757472721_0_0" index="0" speed="12.50" length="5.44" shape="2282.05,2743.72 2281.36,2742.31 2280.44,2741.62 2279.29,2741.64 2277.91,2742.39"/>
    </edge>
    <edge id=":1757472721_1" function="internal">
        <lane id=":1757472721_1_0" index="0" speed="12.50" length="9.84" shape="2282.05,2743.72 2279.05,2734.35"/>
    </edge>
    <edge id=":1757472721_2" function="internal">
        <lane id=":1757472721_2_0" index="0" speed="12.50" length="4.82" shape="2282.05,2743.72 2282.45,2742.28 2283.11,2741.64 2284.02,2741.77 2285.19,2742.69"/>
    </edge>
    <edge id=":1757472721_3" function="internal">
        <lane id=":1757472721_3_0" index="0" speed="12.50" length="9.80" shape="2282.20,2733.36 2285.19,2742.69"/>
    </edge>
    <edge id=":1757472721_4" function="internal">
        <lane id=":1757472721_4_0" index="0" speed="12.50" length="10.69" shape="2282.20,2733.36 2282.49,2735.71 2281.87,2738.00 2280.34,2740.23 2277.91,2742.39"/>
    </edge>
    <edge id=":1757472721_5" function="internal">
        <lane id=":1757472721_5_0" index="0" speed="12.50" length="4.82" shape="2282.20,2733.36 2281.78,2734.79 2281.12,2735.43 2280.21,2735.28 2279.05,2734.35"/>
    </edge>
    <edge id=":1757472721_6" function="internal">
        <lane id=":1757472721_6_0" index="0" speed="12.50" length="6.60" shape="2275.95,2739.73 2277.60,2738.32 2278.67,2736.95 2279.15,2735.63 2279.05,2734.35"/>
    </edge>
    <edge id=":1757472721_7" function="internal">
        <lane id=":1757472721_7_0" index="0" speed="12.50" length="12.13" shape="2275.95,2739.73 2279.03,2738.07 2281.60,2738.01 2283.65,2739.55 2285.19,2742.69"/>
    </edge>
    <edge id=":1757472721_8" function="internal">
        <lane id=":1757472721_8_0" index="0" speed="12.50" length="4.82" shape="2275.95,2739.73 2277.44,2739.66 2278.26,2740.08 2278.42,2740.99 2277.91,2742.39"/>
    </edge>
    <edge id=":1757472723_0" function="internal">
        <lane id=":1757472723_0_0" index="0" speed="14.58" length="6.61" shape="1999.89,2902.38 1999.69,2904.41 2000.20,2905.39 2001.43,2905.32 2003.37,2904.21"/>
    </edge>
    <edge id=":1757472723_1" function="internal">
        <lane id=":1757472723_1_0" index="0" speed="12.50" length="4.98" shape="1999.89,2902.38 1999.08,2903.69 1998.25,2904.14 1997.38,2903.75 1996.48,2902.51"/>
    </edge>
    <edge id=":1757472723_2" function="internal">
        <lane id=":1757472723_2_0" index="0" speed="14.58" length="8.66" shape="1994.59,2910.95 1996.48,2902.51"/>
    </edge>
    <edge id=":1757472723_3" function="internal">
        <lane id=":1757472723_3_0" index="0" speed="16.67" length="10.87" shape="1994.59,2910.95 1997.04,2908.77 1998.81,2907.38 2000.67,2906.09 2003.37,2904.21"/>
        <lane id=":1757472723_3_1" index="1" speed="16.67" length="10.87" shape="1996.83,2913.37 1999.19,2911.27 2000.90,2909.94 2002.68,2908.71 2005.28,2906.90"/>
    </edge>
    <edge id=":1757629157_0" function="internal">
        <lane id=":1757629157_0_0" index="0" speed="15.28" length="14.63" shape="1964.24,2986.41 1963.01,2982.41 1961.32,2980.00 1958.84,2978.09 1955.24,2975.64"/>
        <lane id=":1757629157_0_1" index="1" speed="15.28" length="14.63" shape="1964.24,2986.41 1963.47,2982.11 1962.80,2979.03 1961.34,2976.47 1958.20,2973.71"/>
    </edge>
    <edge id=":1757629157_2" function="internal">
        <lane id=":1757629157_2_0" index="0" speed="18.06" length="14.44" shape="1964.24,2986.41 1963.41,2982.17 1963.01,2979.23 1962.73,2976.28 1962.26,2971.97"/>
        <lane id=":1757629157_2_1" index="1" speed="18.06" length="14.44" shape="1967.47,2985.71 1966.65,2981.55 1966.26,2978.68 1965.99,2975.78 1965.53,2971.56"/>
    </edge>
    <edge id=":1757679296_0" function="internal">
        <lane id=":1757679296_0_0" index="0" speed="14.58" length="5.44" shape="2417.22,2631.02 2416.54,2629.61 2415.63,2628.90 2414.48,2628.92 2413.09,2629.65"/>
    </edge>
    <edge id=":1757679296_1" function="internal">
        <lane id=":1757679296_1_0" index="0" speed="12.50" length="4.82" shape="2417.22,2631.02 2417.64,2629.60 2418.30,2628.96 2419.21,2629.10 2420.37,2630.04"/>
    </edge>
    <edge id=":1757679296_2" function="internal">
        <lane id=":1757679296_2_0" index="0" speed="14.58" length="6.60" shape="2421.08,2623.88 2420.23,2624.85 2419.83,2626.20 2419.87,2627.93 2420.37,2630.04"/>
    </edge>
    <edge id=":1757679296_3" function="internal">
        <lane id=":1757679296_3_0" index="0" speed="16.67" length="9.85" shape="2421.08,2623.88 2413.09,2629.65"/>
        <lane id=":1757679296_3_1" index="1" speed="16.67" length="9.85" shape="2419.15,2621.21 2411.16,2626.97"/>
    </edge>
    <edge id=":1757679297_0" function="internal">
        <lane id=":1757679297_0_0" index="0" speed="14.58" length="5.36" shape="2339.09,2687.19 2338.41,2685.82 2337.49,2685.12 2336.35,2685.11 2334.96,2685.76"/>
    </edge>
    <edge id=":1757679297_1" function="internal">
        <lane id=":1757679297_1_0" index="0" speed="12.50" length="4.82" shape="2339.09,2687.19 2339.49,2685.76 2340.14,2685.11 2341.05,2685.24 2342.22,2686.16"/>
    </edge>
    <edge id=":1757679297_2" function="internal">
        <lane id=":1757679297_2_0" index="0" speed="14.58" length="6.34" shape="2342.96,2680.27 2342.10,2681.22 2341.70,2682.52 2341.73,2684.17 2342.22,2686.16"/>
    </edge>
    <edge id=":1757679297_3" function="internal">
        <lane id=":1757679297_3_0" index="0" speed="16.67" length="9.64" shape="2342.96,2680.27 2334.96,2685.76"/>
        <lane id=":1757679297_3_1" index="1" speed="16.67" length="9.64" shape="2341.03,2677.59 2333.14,2683.02"/>
    </edge>
    <edge id=":1757679298_0" function="internal">
        <lane id=":1757679298_0_0" index="0" speed="16.67" length="9.37" shape="2303.91,2706.41 2296.43,2711.81"/>
        <lane id=":1757679298_0_1" index="1" speed="16.67" length="9.37" shape="2302.08,2703.66 2294.36,2709.24"/>
    </edge>
    <edge id=":1757679298_2" function="internal">
        <lane id=":1757679298_2_0" index="0" speed="14.58" length="6.78" shape="2302.08,2703.66 2299.60,2705.30 2297.81,2706.45 2296.73,2707.10 2296.34,2707.26"/>
    </edge>
    <edge id=":1757679298_3" function="internal">
        <lane id=":1757679298_3_0" index="0" speed="14.58" length="8.07" shape="2297.97,2702.57 2298.19,2704.04 2297.65,2705.64 2296.38,2707.38 2294.36,2709.24"/>
    </edge>
    <edge id=":1757679298_4" function="internal">
        <lane id=":1757679298_4_0" index="0" speed="12.50" length="7.25" shape="2297.97,2702.57 2299.32,2704.35 2299.50,2705.73 2298.51,2706.70 2296.34,2707.26"/>
    </edge>
    <edge id=":1757679299_0" function="internal">
        <lane id=":1757679299_0_0" index="0" speed="14.58" length="5.43" shape="2277.98,2730.92 2277.31,2729.51 2276.40,2728.81 2275.25,2728.82 2273.86,2729.54"/>
    </edge>
    <edge id=":1757679299_1" function="internal">
        <lane id=":1757679299_1_0" index="0" speed="12.50" length="4.82" shape="2277.98,2730.92 2278.40,2729.50 2279.07,2728.86 2279.98,2729.01 2281.13,2729.94"/>
    </edge>
    <edge id=":1757679299_2" function="internal">
        <lane id=":1757679299_2_0" index="0" speed="14.58" length="6.65" shape="2281.70,2723.67 2280.91,2724.67 2280.55,2726.05 2280.63,2727.81 2281.13,2729.94"/>
    </edge>
    <edge id=":1757679299_3" function="internal">
        <lane id=":1757679299_3_0" index="0" speed="16.67" length="9.69" shape="2281.70,2723.67 2273.86,2729.54"/>
        <lane id=":1757679299_3_1" index="1" speed="16.67" length="9.69" shape="2279.63,2721.10 2271.94,2726.85"/>
    </edge>
    <edge id=":1757688435_0" function="internal">
        <lane id=":1757688435_0_0" index="0" speed="12.50" length="2.20" shape="583.08,3969.93 582.66,3971.68"/>
        <lane id=":1757688435_0_1" index="1" speed="12.50" length="2.20" shape="579.88,3969.12 579.36,3971.67"/>
    </edge>
    <edge id=":1757688435_2" function="internal">
        <lane id=":1757688435_2_0" index="0" speed="12.50" length="2.29" shape="582.59,3969.80 582.66,3971.68"/>
        <lane id=":1757688435_2_1" index="1" speed="12.50" length="2.29" shape="579.26,3968.96 579.36,3971.67"/>
    </edge>
    <edge id=":1757688448_0" function="internal">
        <lane id=":1757688448_0_0" index="0" speed="12.50" length="5.08" shape="581.39,3994.65 576.39,3994.38"/>
        <lane id=":1757688448_0_1" index="1" speed="12.50" length="5.08" shape="580.34,3991.11 575.18,3991.31"/>
    </edge>
    <edge id=":1757688448_2" function="internal">
        <lane id=":1757688448_2_0" index="0" speed="12.50" length="6.91" shape="577.88,3987.19 576.39,3994.38"/>
        <lane id=":1757688448_2_1" index="1" speed="12.50" length="6.91" shape="575.40,3984.83 575.18,3991.31"/>
    </edge>
    <edge id=":1757688467_0" function="internal">
        <lane id=":1757688467_0_0" index="0" speed="12.50" length="5.72" shape="569.94,3947.02 574.63,3944.63"/>
        <lane id=":1757688467_0_1" index="1" speed="12.50" length="5.72" shape="569.08,3950.21 574.81,3947.93"/>
    </edge>
    <edge id=":1757688467_2" function="internal">
        <lane id=":1757688467_2_0" index="0" speed="12.50" length="5.52" shape="569.08,3950.21 573.82,3952.06"/>
        <lane id=":1757688467_2_1" index="1" speed="12.50" length="5.52" shape="569.08,3950.21 572.23,3955.25"/>
    </edge>
    <edge id=":1757688485_0" function="internal">
        <lane id=":1757688485_0_0" index="0" speed="12.50" length="8.03" shape="622.92,3931.99 617.45,3936.89"/>
        <lane id=":1757688485_0_1" index="1" speed="12.50" length="8.03" shape="620.97,3929.33 614.42,3935.10"/>
    </edge>
    <edge id=":1757688485_2" function="internal">
        <lane id=":1757688485_2_0" index="0" speed="12.50" length="4.82" shape="620.97,3929.33 619.48,3929.39 618.66,3928.97 618.51,3928.06 619.02,3926.66"/>
    </edge>
    <edge id=":1757688485_3" function="internal">
        <lane id=":1757688485_3_0" index="0" speed="12.50" length="10.81" shape="608.29,3929.86 611.21,3928.77 612.99,3927.55 614.62,3926.02 617.07,3924.00"/>
        <lane id=":1757688485_3_1" index="1" speed="12.50" length="10.81" shape="610.12,3932.77 613.09,3931.63 614.88,3930.35 616.52,3928.75 619.02,3926.66"/>
    </edge>
    <edge id=":1757688485_5" function="internal">
        <lane id=":1757688485_5_0" index="0" speed="12.50" length="11.04" shape="610.12,3932.77 614.54,3931.71 616.73,3931.75 616.69,3932.88 614.42,3935.10"/>
    </edge>
    <edge id=":1757688550_0" function="internal">
        <lane id=":1757688550_0_0" index="0" speed="12.50" length="9.51" shape="582.66,3971.88 587.32,3979.62"/>
        <lane id=":1757688550_0_1" index="1" speed="12.50" length="9.51" shape="582.66,3971.88 584.73,3981.66"/>
    </edge>
    <edge id=":1757688550_2" function="internal">
        <lane id=":1757688550_2_0" index="0" speed="12.50" length="10.60" shape="582.66,3971.88 582.66,3975.15 582.48,3977.42 581.83,3979.56 580.40,3982.47"/>
        <lane id=":1757688550_2_1" index="1" speed="12.50" length="10.60" shape="579.36,3971.87 579.33,3974.88 579.11,3976.96 578.46,3978.94 577.11,3981.62"/>
    </edge>
    <edge id=":1757690351_0" function="internal">
        <lane id=":1757690351_0_0" index="0" speed="14.58" length="17.10" shape="522.70,3953.16 527.61,3952.52 530.85,3951.42 533.90,3949.67 538.21,3947.07"/>
        <lane id=":1757690351_0_1" index="1" speed="14.58" length="17.10" shape="524.10,3956.36 529.10,3955.68 532.38,3954.49 535.45,3952.62 539.84,3949.94"/>
    </edge>
    <edge id=":1757690351_2" function="internal">
        <lane id=":1757690351_2_0" index="0" speed="12.50" length="17.49" shape="526.86,3960.34 529.12,3955.53 531.07,3952.36 533.75,3949.85 538.21,3947.07"/>
        <lane id=":1757690351_2_1" index="1" speed="12.50" length="17.49" shape="529.37,3962.75 531.47,3958.17 533.22,3955.07 535.66,3952.61 539.84,3949.94"/>
    </edge>
    <edge id=":1757690367_0" function="internal">
        <lane id=":1757690367_0_0" index="0" speed="14.58" length="12.46" shape="523.56,3976.20 523.18,3973.94 522.11,3971.58 520.35,3969.10 517.90,3966.52"/>
        <lane id=":1757690367_0_1" index="1" speed="14.58" length="12.46" shape="526.86,3976.15 526.44,3973.25 525.27,3970.36 523.35,3967.48 520.68,3964.61"/>
    </edge>
    <edge id=":1757690367_2" function="internal">
        <lane id=":1757690367_2_0" index="0" speed="12.50" length="12.70" shape="526.86,3976.15 526.20,3972.34 525.05,3969.68 524.42,3967.12 525.31,3963.65"/>
        <lane id=":1757690367_2_1" index="1" speed="12.50" length="12.70" shape="526.86,3976.15 526.75,3972.46 526.80,3969.90 527.35,3967.44 528.75,3964.08"/>
    </edge>
    <edge id=":1757698936_0" function="internal">
        <lane id=":1757698936_0_0" index="0" speed="14.58" length="8.84" shape="15.52,3488.41 14.45,3489.58 14.14,3490.69 14.60,3491.74 15.81,3492.75"/>
        <lane id=":1757698936_0_1" index="1" speed="14.58" length="8.84" shape="13.42,3485.86 11.03,3488.46 10.35,3490.95 11.37,3493.31 14.09,3495.56"/>
    </edge>
    <edge id=":1757698936_2" function="internal">
        <lane id=":1757698936_2_0" index="0" speed="16.67" length="8.74" shape="8.33,3488.20 15.81,3492.75"/>
        <lane id=":1757698936_2_1" index="1" speed="16.67" length="8.74" shape="6.64,3491.03 14.09,3495.56"/>
    </edge>
    <edge id=":1757698953_0" function="internal">
        <lane id=":1757698953_0_0" index="0" speed="16.67" length="9.54" shape="288.15,3727.22 281.18,3720.70"/>
        <lane id=":1757698953_0_1" index="1" speed="16.67" length="9.54" shape="290.40,3724.80 283.44,3718.29"/>
    </edge>
    <edge id=":1757698953_2" function="internal">
        <lane id=":1757698953_2_0" index="0" speed="14.58" length="6.67" shape="290.40,3724.80 284.89,3721.03"/>
    </edge>
    <edge id=":1757698953_3" function="internal">
        <lane id=":1757698953_3_0" index="0" speed="14.58" length="7.83" shape="290.24,3720.55 288.99,3721.18 287.44,3721.02 285.59,3720.06 283.44,3718.29"/>
    </edge>
    <edge id=":1757698953_4" function="internal">
        <lane id=":1757698953_4_0" index="0" speed="12.50" length="7.84" shape="290.24,3720.55 289.09,3722.67 287.81,3723.46 286.41,3722.92 284.89,3721.03"/>
    </edge>
    <edge id=":1858033113_0" function="internal">
        <lane id=":1858033113_0_0" index="0" speed="14.58" length="4.79" shape="1572.62,306.57 1569.92,302.62"/>
    </edge>
    <edge id=":1858033113_1" function="internal">
        <lane id=":1858033113_1_0" index="0" speed="16.67" length="2.41" shape="1572.62,306.57 1573.10,305.16 1573.79,304.55"/>
    </edge>
    <edge id=":1858033113_4" function="internal">
        <lane id=":1858033113_4_0" index="0" speed="16.67" length="2.41" shape="1573.79,304.55 1574.69,304.74 1575.81,305.72"/>
    </edge>
    <edge id=":1858033113_2" function="internal">
        <lane id=":1858033113_2_0" index="0" speed="14.58" length="5.50" shape="1573.46,300.75 1575.81,305.72"/>
    </edge>
    <edge id=":1858033113_3" function="internal">
        <lane id=":1858033113_3_0" index="0" speed="12.50" length="7.27" shape="1573.46,300.75 1573.59,303.15 1573.04,304.26 1571.82,304.08 1569.92,302.62"/>
    </edge>
    <edge id=":1858113996_0" function="internal">
        <lane id=":1858113996_0_0" index="0" speed="15.28" length="13.79" shape="1723.47,5473.32 1726.82,5471.49 1729.37,5470.33 1731.34,5468.72 1732.92,5465.53"/>
        <lane id=":1858113996_0_1" index="1" speed="15.28" length="13.79" shape="1725.30,5476.06 1729.17,5473.87 1732.05,5472.39 1734.24,5470.38 1736.05,5466.59"/>
    </edge>
    <edge id=":1858113996_2" function="internal">
        <lane id=":1858113996_2_0" index="0" speed="18.06" length="13.74" shape="1728.45,5478.51 1729.79,5474.66 1730.71,5472.03 1731.61,5469.39 1732.92,5465.53"/>
        <lane id=":1858113996_2_1" index="1" speed="18.06" length="13.74" shape="1731.57,5479.59 1732.91,5475.73 1733.83,5473.09 1734.74,5470.45 1736.05,5466.59"/>
    </edge>
    <edge id=":1858113997_0" function="internal">
        <lane id=":1858113997_0_0" index="0" speed="12.50" length="4.97" shape="1673.37,5500.90 1668.52,5499.80"/>
    </edge>
    <edge id=":1858113997_1" function="internal">
        <lane id=":1858113997_1_0" index="0" speed="12.50" length="8.52" shape="1673.26,5497.59 1670.36,5497.70 1669.19,5497.14 1669.73,5495.90 1672.00,5493.99"/>
    </edge>
    <edge id=":1858113997_2" function="internal">
        <lane id=":1858113997_2_0" index="0" speed="12.50" length="5.77" shape="1667.76,5496.59 1670.08,5491.31"/>
    </edge>
    <edge id=":1858113997_3" function="internal">
        <lane id=":1858113997_3_0" index="0" speed="12.50" length="4.82" shape="1667.76,5496.59 1669.15,5497.10 1669.74,5497.81 1669.53,5498.71 1668.52,5499.80"/>
    </edge>
    <edge id=":1859529848_0" function="internal">
        <lane id=":1859529848_0_0" index="0" speed="16.67" length="0.11" shape="1636.93,5779.63 1636.92,5779.74"/>
    </edge>
    <edge id=":1859529848_1" function="internal">
        <lane id=":1859529848_1_0" index="0" speed="16.67" length="0.34" shape="1633.64,5779.36 1633.69,5779.02"/>
    </edge>
    <edge id=":1869057017_0" function="internal">
        <lane id=":1869057017_0_0" index="0" speed="12.50" length="11.86" shape="2503.65,2554.83 2501.01,2552.91 2498.88,2551.31 2496.79,2549.64 2494.28,2547.56"/>
    </edge>
    <edge id=":1869057017_1" function="internal">
        <lane id=":1869057017_1_0" index="0" speed="14.58" length="8.91" shape="2503.65,2554.83 2502.29,2553.33 2502.16,2551.66 2503.26,2549.81 2505.57,2547.80"/>
    </edge>
    <edge id=":1869057017_2" function="internal">
        <lane id=":1869057017_2_0" index="0" speed="12.50" length="4.82" shape="2503.65,2554.83 2503.12,2553.44 2503.27,2552.52 2504.09,2552.10 2505.57,2552.15"/>
    </edge>
    <edge id=":1869057017_3" function="internal">
        <lane id=":1869057017_3_0" index="0" speed="14.58" length="7.89" shape="2496.40,2545.04 2498.12,2546.11 2499.91,2546.48 2501.75,2546.15 2503.65,2545.12"/>
    </edge>
    <edge id=":1869057017_4" function="internal">
        <lane id=":1869057017_4_0" index="0" speed="12.50" length="11.61" shape="2496.40,2545.04 2498.88,2547.10 2500.90,2548.70 2502.97,2550.26 2505.57,2552.15"/>
    </edge>
    <edge id=":1869057017_5" function="internal">
        <lane id=":1869057017_5_0" index="0" speed="12.50" length="4.80" shape="2496.40,2545.04 2496.81,2546.46 2496.60,2547.36 2495.75,2547.72 2494.28,2547.56"/>
    </edge>
    <edge id=":1869057017_6" function="internal">
        <lane id=":1869057017_6_0" index="0" speed="14.58" length="5.34" shape="2494.10,2551.92 2495.20,2550.87 2495.60,2549.80 2495.30,2548.69 2494.28,2547.56"/>
    </edge>
    <edge id=":1869057017_7" function="internal">
        <lane id=":1869057017_7_0" index="0" speed="16.67" length="11.74" shape="2494.10,2551.92 2496.94,2549.91 2498.88,2548.53 2500.82,2547.15 2503.65,2545.12"/>
        <lane id=":1869057017_7_1" index="1" speed="16.67" length="11.74" shape="2496.00,2554.61 2498.85,2552.60 2500.80,2551.22 2502.74,2549.83 2505.57,2547.80"/>
    </edge>
    <edge id=":1869057017_9" function="internal">
        <lane id=":1869057017_9_0" index="0" speed="14.58" length="10.44" shape="2496.00,2554.61 2499.06,2552.72 2501.67,2551.68 2503.84,2551.49 2505.57,2552.15"/>
    </edge>
    <edge id=":1894071861_0" function="internal">
        <lane id=":1894071861_0_0" index="0" speed="12.50" length="4.82" shape="2133.48,235.12 2134.97,235.08 2135.78,235.52 2135.92,236.43 2135.38,237.82"/>
    </edge>
    <edge id=":1894127311_0" function="internal">
        <lane id=":1894127311_0_0" index="0" speed="12.50" length="10.13" shape="2296.27,2707.08 2295.11,2704.32 2294.23,2702.44 2293.19,2700.64 2291.58,2698.12"/>
    </edge>
    <edge id=":1894127311_1" function="internal">
        <lane id=":1894127311_1_0" index="0" speed="14.58" length="9.27" shape="2296.27,2707.08 2296.11,2705.54 2296.81,2703.78 2298.37,2701.78 2300.79,2699.55"/>
    </edge>
    <edge id=":1894127311_2" function="internal">
        <lane id=":1894127311_2_0" index="0" speed="12.50" length="7.25" shape="2296.27,2707.08 2294.92,2705.29 2294.74,2703.92 2295.73,2702.95 2297.90,2702.39"/>
    </edge>
    <edge id=":1894127311_3" function="internal">
        <lane id=":1894127311_3_0" index="0" speed="14.58" length="5.14" shape="2294.35,2696.33 2295.30,2697.41 2296.33,2697.88 2297.46,2697.75 2298.69,2697.00"/>
    </edge>
    <edge id=":1894127311_4" function="internal">
        <lane id=":1894127311_4_0" index="0" speed="12.50" length="7.02" shape="2294.35,2696.33 2297.90,2702.39"/>
    </edge>
    <edge id=":1894127311_5" function="internal">
        <lane id=":1894127311_5_0" index="0" speed="12.50" length="4.82" shape="2294.35,2696.33 2294.33,2697.82 2293.86,2698.61 2292.95,2698.71 2291.58,2698.12"/>
    </edge>
    <edge id=":1894127311_6" function="internal">
        <lane id=":1894127311_6_0" index="0" speed="14.58" length="6.03" shape="2290.29,2703.28 2291.58,2702.14 2292.22,2700.90 2292.22,2699.56 2291.58,2698.12"/>
    </edge>
    <edge id=":1894127311_7" function="internal">
        <lane id=":1894127311_7_0" index="0" speed="16.67" length="10.64" shape="2290.29,2703.28 2292.86,2701.52 2294.60,2700.28 2296.28,2698.97 2298.69,2697.00"/>
        <lane id=":1894127311_7_1" index="1" speed="16.67" length="10.64" shape="2292.15,2706.01 2294.80,2704.20 2296.58,2702.93 2298.31,2701.58 2300.79,2699.55"/>
    </edge>
    <edge id=":1894127311_9" function="internal">
        <lane id=":1894127311_9_0" index="0" speed="14.58" length="6.80" shape="2292.15,2706.01 2294.63,2704.34 2296.41,2703.18 2297.50,2702.53 2297.90,2702.39"/>
    </edge>
    <edge id=":1894127732_0" function="internal">
        <lane id=":1894127732_0_0" index="0" speed="12.50" length="6.11" shape="736.30,4155.98 735.10,4154.80 733.81,4154.24 732.41,4154.28 730.92,4154.93"/>
    </edge>
    <edge id=":1894127732_1" function="internal">
        <lane id=":1894127732_1_0" index="0" speed="12.50" length="10.33" shape="736.30,4155.98 734.42,4153.55 733.13,4151.89 731.85,4150.23 729.97,4147.81"/>
        <lane id=":1894127732_1_1" index="1" speed="12.50" length="10.33" shape="738.90,4153.96 737.03,4151.53 735.74,4149.87 734.45,4148.21 732.57,4145.79"/>
    </edge>
    <edge id=":1894127732_3" function="internal">
        <lane id=":1894127732_3_0" index="0" speed="12.50" length="6.79" shape="738.90,4153.96 734.21,4149.04"/>
    </edge>
    <edge id=":1894127732_4" function="internal">
        <lane id=":1894127732_4_0" index="0" speed="12.50" length="10.09" shape="739.57,4149.75 736.99,4151.25 735.22,4152.30 733.46,4153.37 730.92,4154.93"/>
    </edge>
    <edge id=":1894127732_5" function="internal">
        <lane id=":1894127732_5_0" index="0" speed="12.50" length="8.67" shape="739.57,4149.75 738.12,4150.09 736.47,4149.55 734.62,4148.11 732.57,4145.79"/>
    </edge>
    <edge id=":1894127732_6" function="internal">
        <lane id=":1894127732_6_0" index="0" speed="12.50" length="7.90" shape="739.57,4149.75 737.97,4151.59 736.54,4152.08 735.29,4151.23 734.21,4149.04"/>
    </edge>
    <edge id=":1894127732_7" function="internal">
        <lane id=":1894127732_7_0" index="0" speed="12.50" length="5.13" shape="729.18,4152.12 730.28,4151.21 730.78,4150.18 730.67,4149.05 729.97,4147.81"/>
    </edge>
    <edge id=":1894127732_8" function="internal">
        <lane id=":1894127732_8_0" index="0" speed="12.50" length="5.90" shape="729.18,4152.12 734.21,4149.04"/>
    </edge>
    <edge id=":1894127732_9" function="internal">
        <lane id=":1894127732_9_0" index="0" speed="12.50" length="4.82" shape="729.18,4152.12 730.67,4152.18 731.45,4152.66 731.54,4153.58 730.92,4154.93"/>
    </edge>
    <edge id=":1898862972_0" function="internal">
        <lane id=":1898862972_0_0" index="0" speed="12.50" length="11.82" shape="2247.40,1292.39 2244.48,1293.81 2242.09,1294.98 2239.71,1296.14 2236.79,1297.57"/>
    </edge>
    <edge id=":1898862972_1" function="internal">
        <lane id=":1898862972_1_0" index="0" speed="12.50" length="12.88" shape="2247.40,1292.39 2244.86,1293.12 2241.99,1292.99 2238.77,1292.01 2235.22,1290.17"/>
    </edge>
    <edge id=":1898862972_2" function="internal">
        <lane id=":1898862972_2_0" index="0" speed="12.50" length="4.82" shape="2247.40,1292.39 2245.93,1292.19 2245.20,1291.63 2245.21,1290.70 2245.96,1289.42"/>
    </edge>
    <edge id=":1898862972_3" function="internal">
        <lane id=":1898862972_3_0" index="0" speed="12.50" length="10.32" shape="2236.28,1286.95 2239.35,1288.60 2241.98,1289.56 2244.18,1289.84 2245.96,1289.42"/>
    </edge>
    <edge id=":1898862972_4" function="internal">
        <lane id=":1898862972_4_0" index="0" speed="12.50" length="14.82" shape="2236.28,1286.95 2240.03,1289.88 2241.36,1292.62 2240.28,1295.18 2236.79,1297.57"/>
    </edge>
    <edge id=":1898862972_5" function="internal">
        <lane id=":1898862972_5_0" index="0" speed="12.50" length="4.94" shape="2236.28,1286.95 2237.22,1288.16 2237.36,1289.09 2236.69,1289.76 2235.22,1290.17"/>
    </edge>
    <edge id=":1898862972_6" function="internal">
        <lane id=":1898862972_6_0" index="0" speed="12.50" length="6.19" shape="2235.34,1294.60 2236.82,1293.60 2237.30,1292.52 2236.76,1291.38 2235.22,1290.17"/>
    </edge>
    <edge id=":1898862972_7" function="internal">
        <lane id=":1898862972_7_0" index="0" speed="12.50" length="11.82" shape="2235.34,1294.60 2238.26,1293.18 2240.65,1292.01 2243.03,1290.85 2245.96,1289.42"/>
    </edge>
    <edge id=":1898862972_8" function="internal">
        <lane id=":1898862972_8_0" index="0" speed="12.50" length="4.82" shape="2235.34,1294.60 2236.81,1294.80 2237.54,1295.36 2237.54,1296.28 2236.79,1297.57"/>
    </edge>
    <edge id=":1989914663_0" function="internal">
        <lane id=":1989914663_0_0" index="0" speed="12.50" length="5.06" shape="1185.47,426.26 1184.54,425.26 1183.50,424.81 1182.35,424.89 1181.09,425.52"/>
    </edge>
    <edge id=":1989914663_1" function="internal">
        <lane id=":1989914663_1_0" index="0" speed="12.50" length="9.52" shape="1185.47,426.26 1179.98,418.48"/>
    </edge>
    <edge id=":1989914663_2" function="internal">
        <lane id=":1989914663_2_0" index="0" speed="12.50" length="4.82" shape="1185.47,426.26 1185.44,424.77 1185.89,423.96 1186.80,423.83 1188.18,424.37"/>
    </edge>
    <edge id=":1989914663_3" function="internal">
        <lane id=":1989914663_3_0" index="0" speed="12.50" length="5.01" shape="1188.95,420.04 1187.95,420.98 1187.49,422.02 1187.57,423.15 1188.18,424.37"/>
    </edge>
    <edge id=":1989914663_4" function="internal">
        <lane id=":1989914663_4_0" index="0" speed="12.50" length="9.55" shape="1188.95,420.04 1181.09,425.52"/>
        <lane id=":1989914663_4_1" index="1" speed="12.50" length="9.55" shape="1187.04,417.35 1179.22,422.80"/>
    </edge>
    <edge id=":1989914663_6" function="internal">